
---------- Begin Simulation Statistics ----------
sim_seconds                                  0.044305                       # Number of seconds simulated
sim_ticks                                 44304580500                       # Number of ticks simulated
final_tick                                44304580500                       # Number of ticks from beginning of simulation (restored from checkpoints and never reset)
sim_freq                                 1000000000000                       # Frequency of simulated ticks
host_inst_rate                                1371385                       # Simulator instruction rate (inst/s)
host_op_rate                                  2327191                       # Simulator op (including micro ops) rate (op/s)
host_tick_rate                             2164966464                       # Simulator tick rate (ticks/s)
host_mem_usage                                 659600                       # Number of bytes of host memory used
host_seconds                                    20.46                       # Real time elapsed on the host
sim_insts                                    28064131                       # Number of instructions simulated
sim_ops                                      47624120                       # Number of ops (including micro ops) simulated
system.voltage_domain.voltage                       1                       # Voltage in Volts
system.clk_domain.clock                          1000                       # Clock period in ticks
system.mem_ctrls.pwrStateResidencyTicks::UNDEFINED  44304580500                       # Cumulative time (in ticks) in various power states
system.mem_ctrls.bytes_read::cpu.inst           22720                       # Number of bytes read from this memory
system.mem_ctrls.bytes_read::cpu.data          456576                       # Number of bytes read from this memory
system.mem_ctrls.bytes_read::total             479296                       # Number of bytes read from this memory
system.mem_ctrls.bytes_inst_read::cpu.inst        22720                       # Number of instructions bytes read from this memory
system.mem_ctrls.bytes_inst_read::total         22720                       # Number of instructions bytes read from this memory
system.mem_ctrls.bytes_written::writebacks        57728                       # Number of bytes written to this memory
system.mem_ctrls.bytes_written::total           57728                       # Number of bytes written to this memory
system.mem_ctrls.num_reads::cpu.inst              355                       # Number of read requests responded to by this memory
system.mem_ctrls.num_reads::cpu.data             7134                       # Number of read requests responded to by this memory
system.mem_ctrls.num_reads::total                7489                       # Number of read requests responded to by this memory
system.mem_ctrls.num_writes::writebacks           902                       # Number of write requests responded to by this memory
system.mem_ctrls.num_writes::total                902                       # Number of write requests responded to by this memory
system.mem_ctrls.bw_read::cpu.inst             512814                       # Total read bandwidth from this memory (bytes/s)
system.mem_ctrls.bw_read::cpu.data           10305390                       # Total read bandwidth from this memory (bytes/s)
system.mem_ctrls.bw_read::total              10818204                       # Total read bandwidth from this memory (bytes/s)
system.mem_ctrls.bw_inst_read::cpu.inst        512814                       # Instruction read bandwidth from this memory (bytes/s)
system.mem_ctrls.bw_inst_read::total           512814                       # Instruction read bandwidth from this memory (bytes/s)
system.mem_ctrls.bw_write::writebacks         1302980                       # Write bandwidth from this memory (bytes/s)
system.mem_ctrls.bw_write::total              1302980                       # Write bandwidth from this memory (bytes/s)
system.mem_ctrls.bw_total::writebacks         1302980                       # Total bandwidth to/from this memory (bytes/s)
system.mem_ctrls.bw_total::cpu.inst            512814                       # Total bandwidth to/from this memory (bytes/s)
system.mem_ctrls.bw_total::cpu.data          10305390                       # Total bandwidth to/from this memory (bytes/s)
system.mem_ctrls.bw_total::total             12121185                       # Total bandwidth to/from this memory (bytes/s)
system.pwrStateResidencyTicks::UNDEFINED  44304580500                       # Cumulative time (in ticks) in various power states
system.cpu_voltage_domain.voltage                   1                       # Voltage in Volts
system.cpu_clk_domain.clock                       500                       # Clock period in ticks
system.cpu.dtb.walker.pwrStateResidencyTicks::UNDEFINED  44304580500                       # Cumulative time (in ticks) in various power states
system.cpu.dtb.rdAccesses                     4488672                       # TLB accesses on read requests
system.cpu.dtb.wrAccesses                     2193943                       # TLB accesses on write requests
system.cpu.dtb.rdMisses                           166                       # TLB misses on read requests
system.cpu.dtb.wrMisses                           107                       # TLB misses on write requests
system.cpu.apic_clk_domain.clock                 8000                       # Clock period in ticks
system.cpu.interrupts.pwrStateResidencyTicks::UNDEFINED  44304580500                       # Cumulative time (in ticks) in various power states
system.cpu.itb.walker.pwrStateResidencyTicks::UNDEFINED  44304580500                       # Cumulative time (in ticks) in various power states
system.cpu.itb.rdAccesses                           0                       # TLB accesses on read requests
system.cpu.itb.wrAccesses                    35206216                       # TLB accesses on write requests
system.cpu.itb.rdMisses                             0                       # TLB misses on read requests
system.cpu.itb.wrMisses                            35                       # TLB misses on write requests
system.cpu.workload.numSyscalls                     9                       # Number of system calls
system.cpu.pwrStateResidencyTicks::ON     44304580500                       # Cumulative time (in ticks) in various power states
system.cpu.numCycles                         88609161                       # number of cpu cycles simulated
system.cpu.numWorkItemsStarted                      0                       # number of work items this cpu started
system.cpu.numWorkItemsCompleted                    0                       # number of work items this cpu completed
system.cpu.committedInsts                    28064131                       # Number of instructions committed
system.cpu.committedOps                      47624120                       # Number of ops (including micro ops) committed
system.cpu.num_int_alu_accesses              47536435                       # Number of integer alu accesses
system.cpu.num_fp_alu_accesses                   1951                       # Number of float alu accesses
system.cpu.num_vec_alu_accesses                     0                       # Number of vector alu accesses
system.cpu.num_func_calls                      772572                       # number of times a function call or return occured
system.cpu.num_conditional_control_insts      4056704                       # number of instructions that are conditional controls
system.cpu.num_int_insts                     47536435                       # number of integer instructions
system.cpu.num_fp_insts                          1951                       # number of float instructions
system.cpu.num_vec_insts                            0                       # number of vector instructions
system.cpu.num_int_register_reads            90177521                       # number of times the integer registers were read
system.cpu.num_int_register_writes           39127118                       # number of times the integer registers were written
system.cpu.num_fp_register_reads                 3771                       # number of times the floating registers were read
system.cpu.num_fp_register_writes                1484                       # number of times the floating registers were written
system.cpu.num_vec_register_reads                   0                       # number of times the vector registers were read
system.cpu.num_vec_register_writes                  0                       # number of times the vector registers were written
system.cpu.num_cc_register_reads             22557826                       # number of times the CC registers were read
system.cpu.num_cc_register_writes            16666257                       # number of times the CC registers were written
system.cpu.num_mem_refs                       6682610                       # number of memory refs
system.cpu.num_load_insts                     4488668                       # Number of load instructions
system.cpu.num_store_insts                    2193942                       # Number of store instructions
system.cpu.num_idle_cycles                          0                       # Number of idle cycles
system.cpu.num_busy_cycles                   88609161                       # Number of busy cycles
system.cpu.not_idle_fraction                        1                       # Percentage of non-idle cycles
system.cpu.idle_fraction                            0                       # Percentage of idle cycles
system.cpu.Branches                           6415420                       # Number of branches fetched
system.cpu.op_class::No_OpClass                 86264      0.18%      0.18% # Class of executed instruction
system.cpu.op_class::IntAlu                  40654268     85.36%     85.55% # Class of executed instruction
system.cpu.op_class::IntMult                   200004      0.42%     85.97% # Class of executed instruction
system.cpu.op_class::IntDiv                        14      0.00%     85.97% # Class of executed instruction
system.cpu.op_class::FloatAdd                      10      0.00%     85.97% # Class of executed instruction
system.cpu.op_class::FloatCmp                       0      0.00%     85.97% # Class of executed instruction
system.cpu.op_class::FloatCvt                       0      0.00%     85.97% # Class of executed instruction
system.cpu.op_class::FloatMult                      0      0.00%     85.97% # Class of executed instruction
system.cpu.op_class::FloatMultAcc                   0      0.00%     85.97% # Class of executed instruction
system.cpu.op_class::FloatDiv                       0      0.00%     85.97% # Class of executed instruction
system.cpu.op_class::FloatMisc                      0      0.00%     85.97% # Class of executed instruction
system.cpu.op_class::FloatSqrt                      0      0.00%     85.97% # Class of executed instruction
system.cpu.op_class::SimdAdd                      374      0.00%     85.97% # Class of executed instruction
system.cpu.op_class::SimdAddAcc                     0      0.00%     85.97% # Class of executed instruction
system.cpu.op_class::SimdAlu                       68      0.00%     85.97% # Class of executed instruction
system.cpu.op_class::SimdCmp                        0      0.00%     85.97% # Class of executed instruction
system.cpu.op_class::SimdCvt                      108      0.00%     85.97% # Class of executed instruction
system.cpu.op_class::SimdMisc                     214      0.00%     85.97% # Class of executed instruction
system.cpu.op_class::SimdMult                       0      0.00%     85.97% # Class of executed instruction
system.cpu.op_class::SimdMultAcc                    0      0.00%     85.97% # Class of executed instruction
system.cpu.op_class::SimdShift                    186      0.00%     85.97% # Class of executed instruction
system.cpu.op_class::SimdShiftAcc                   0      0.00%     85.97% # Class of executed instruction
system.cpu.op_class::SimdSqrt                       0      0.00%     85.97% # Class of executed instruction
system.cpu.op_class::SimdFloatAdd                   0      0.00%     85.97% # Class of executed instruction
system.cpu.op_class::SimdFloatAlu                   0      0.00%     85.97% # Class of executed instruction
system.cpu.op_class::SimdFloatCmp                   0      0.00%     85.97% # Class of executed instruction
system.cpu.op_class::SimdFloatCvt                   0      0.00%     85.97% # Class of executed instruction
system.cpu.op_class::SimdFloatDiv                   0      0.00%     85.97% # Class of executed instruction
system.cpu.op_class::SimdFloatMisc                  0      0.00%     85.97% # Class of executed instruction
system.cpu.op_class::SimdFloatMult                  0      0.00%     85.97% # Class of executed instruction
system.cpu.op_class::SimdFloatMultAcc               0      0.00%     85.97% # Class of executed instruction
system.cpu.op_class::SimdFloatSqrt                  0      0.00%     85.97% # Class of executed instruction
system.cpu.op_class::MemRead                  4488608      9.43%     95.39% # Class of executed instruction
system.cpu.op_class::MemWrite                 2193523      4.61%    100.00% # Class of executed instruction
system.cpu.op_class::FloatMemRead                  60      0.00%    100.00% # Class of executed instruction
system.cpu.op_class::FloatMemWrite                419      0.00%    100.00% # Class of executed instruction
system.cpu.op_class::IprAccess                      0      0.00%    100.00% # Class of executed instruction
system.cpu.op_class::InstPrefetch                   0      0.00%    100.00% # Class of executed instruction
system.cpu.op_class::total                   47624120                       # Class of executed instruction
system.cpu.dcache.tags.pwrStateResidencyTicks::UNDEFINED  44304580500                       # Cumulative time (in ticks) in various power states
system.cpu.dcache.tags.tagsinuse          1005.214490                       # Cycle average of tags in use
system.cpu.dcache.tags.total_refs             6682615                       # Total number of references to valid blocks.
system.cpu.dcache.tags.sampled_refs             36748                       # Sample count of references to valid blocks.
system.cpu.dcache.tags.avg_refs            181.849761                       # Average number of references to valid blocks.
system.cpu.dcache.tags.warmup_cycle            765500                       # Cycle when the warmup percentage was hit.
system.cpu.dcache.tags.occ_blocks::cpu.data  1005.214490                       # Average occupied blocks per requestor
system.cpu.dcache.tags.occ_percent::cpu.data     0.981655                       # Average percentage of cache occupancy
system.cpu.dcache.tags.occ_percent::total     0.981655                       # Average percentage of cache occupancy
system.cpu.dcache.tags.occ_task_id_blocks::1024         1024                       # Occupied blocks per task id
system.cpu.dcache.tags.age_task_id_blocks_1024::0           11                       # Occupied blocks per task id
system.cpu.dcache.tags.age_task_id_blocks_1024::1           15                       # Occupied blocks per task id
system.cpu.dcache.tags.age_task_id_blocks_1024::2          166                       # Occupied blocks per task id
system.cpu.dcache.tags.age_task_id_blocks_1024::3          832                       # Occupied blocks per task id
system.cpu.dcache.tags.occ_task_id_percent::1024            1                       # Percentage of cache occupancy per task id
system.cpu.dcache.tags.tag_accesses          13401978                       # Number of tag accesses
system.cpu.dcache.tags.data_accesses         13401978                       # Number of data accesses
system.cpu.dcache.pwrStateResidencyTicks::UNDEFINED  44304580500                       # Cumulative time (in ticks) in various power states
system.cpu.dcache.ReadReq_hits::cpu.data      4458447                       # number of ReadReq hits
system.cpu.dcache.ReadReq_hits::total         4458447                       # number of ReadReq hits
system.cpu.dcache.WriteReq_hits::cpu.data      2162522                       # number of WriteReq hits
system.cpu.dcache.WriteReq_hits::total        2162522                       # number of WriteReq hits
system.cpu.dcache.demand_hits::cpu.data       6620969                       # number of demand (read+write) hits
system.cpu.dcache.demand_hits::total          6620969                       # number of demand (read+write) hits
system.cpu.dcache.overall_hits::cpu.data      6620969                       # number of overall hits
system.cpu.dcache.overall_hits::total         6620969                       # number of overall hits
system.cpu.dcache.ReadReq_misses::cpu.data        30225                       # number of ReadReq misses
system.cpu.dcache.ReadReq_misses::total         30225                       # number of ReadReq misses
system.cpu.dcache.WriteReq_misses::cpu.data        31421                       # number of WriteReq misses
system.cpu.dcache.WriteReq_misses::total        31421                       # number of WriteReq misses
system.cpu.dcache.demand_misses::cpu.data        61646                       # number of demand (read+write) misses
system.cpu.dcache.demand_misses::total          61646                       # number of demand (read+write) misses
system.cpu.dcache.overall_misses::cpu.data        61646                       # number of overall misses
system.cpu.dcache.overall_misses::total         61646                       # number of overall misses
system.cpu.dcache.ReadReq_miss_latency::cpu.data   1454636000                       # number of ReadReq miss cycles
system.cpu.dcache.ReadReq_miss_latency::total   1454636000                       # number of ReadReq miss cycles
system.cpu.dcache.WriteReq_miss_latency::cpu.data    961048500                       # number of WriteReq miss cycles
system.cpu.dcache.WriteReq_miss_latency::total    961048500                       # number of WriteReq miss cycles
system.cpu.dcache.demand_miss_latency::cpu.data   2415684500                       # number of demand (read+write) miss cycles
system.cpu.dcache.demand_miss_latency::total   2415684500                       # number of demand (read+write) miss cycles
system.cpu.dcache.overall_miss_latency::cpu.data   2415684500                       # number of overall miss cycles
system.cpu.dcache.overall_miss_latency::total   2415684500                       # number of overall miss cycles
system.cpu.dcache.ReadReq_accesses::cpu.data      4488672                       # number of ReadReq accesses(hits+misses)
system.cpu.dcache.ReadReq_accesses::total      4488672                       # number of ReadReq accesses(hits+misses)
system.cpu.dcache.WriteReq_accesses::cpu.data      2193943                       # number of WriteReq accesses(hits+misses)
system.cpu.dcache.WriteReq_accesses::total      2193943                       # number of WriteReq accesses(hits+misses)
system.cpu.dcache.demand_accesses::cpu.data      6682615                       # number of demand (read+write) accesses
system.cpu.dcache.demand_accesses::total      6682615                       # number of demand (read+write) accesses
system.cpu.dcache.overall_accesses::cpu.data      6682615                       # number of overall (read+write) accesses
system.cpu.dcache.overall_accesses::total      6682615                       # number of overall (read+write) accesses
system.cpu.dcache.ReadReq_miss_rate::cpu.data     0.006734                       # miss rate for ReadReq accesses
system.cpu.dcache.ReadReq_miss_rate::total     0.006734                       # miss rate for ReadReq accesses
system.cpu.dcache.WriteReq_miss_rate::cpu.data     0.014322                       # miss rate for WriteReq accesses
system.cpu.dcache.WriteReq_miss_rate::total     0.014322                       # miss rate for WriteReq accesses
system.cpu.dcache.demand_miss_rate::cpu.data     0.009225                       # miss rate for demand accesses
system.cpu.dcache.demand_miss_rate::total     0.009225                       # miss rate for demand accesses
system.cpu.dcache.overall_miss_rate::cpu.data     0.009225                       # miss rate for overall accesses
system.cpu.dcache.overall_miss_rate::total     0.009225                       # miss rate for overall accesses
system.cpu.dcache.ReadReq_avg_miss_latency::cpu.data 48126.914806                       # average ReadReq miss latency
system.cpu.dcache.ReadReq_avg_miss_latency::total 48126.914806                       # average ReadReq miss latency
system.cpu.dcache.WriteReq_avg_miss_latency::cpu.data 30586.184399                       # average WriteReq miss latency
system.cpu.dcache.WriteReq_avg_miss_latency::total 30586.184399                       # average WriteReq miss latency
system.cpu.dcache.demand_avg_miss_latency::cpu.data 39186.394900                       # average overall miss latency
system.cpu.dcache.demand_avg_miss_latency::total 39186.394900                       # average overall miss latency
system.cpu.dcache.overall_avg_miss_latency::cpu.data 39186.394900                       # average overall miss latency
system.cpu.dcache.overall_avg_miss_latency::total 39186.394900                       # average overall miss latency
system.cpu.dcache.blocked_cycles::no_mshrs            0                       # number of cycles access was blocked
system.cpu.dcache.blocked_cycles::no_targets            0                       # number of cycles access was blocked
system.cpu.dcache.blocked::no_mshrs                 0                       # number of cycles access was blocked
system.cpu.dcache.blocked::no_targets               0                       # number of cycles access was blocked
system.cpu.dcache.avg_blocked_cycles::no_mshrs          nan                       # average number of cycles each access was blocked
system.cpu.dcache.avg_blocked_cycles::no_targets          nan                       # average number of cycles each access was blocked
system.cpu.dcache.writebacks::writebacks        33143                       # number of writebacks
system.cpu.dcache.writebacks::total             33143                       # number of writebacks
system.cpu.dcache.ReadReq_mshr_misses::cpu.data        30225                       # number of ReadReq MSHR misses
system.cpu.dcache.ReadReq_mshr_misses::total        30225                       # number of ReadReq MSHR misses
system.cpu.dcache.WriteReq_mshr_misses::cpu.data        31421                       # number of WriteReq MSHR misses
system.cpu.dcache.WriteReq_mshr_misses::total        31421                       # number of WriteReq MSHR misses
system.cpu.dcache.demand_mshr_misses::cpu.data        61646                       # number of demand (read+write) MSHR misses
system.cpu.dcache.demand_mshr_misses::total        61646                       # number of demand (read+write) MSHR misses
system.cpu.dcache.overall_mshr_misses::cpu.data        61646                       # number of overall MSHR misses
system.cpu.dcache.overall_mshr_misses::total        61646                       # number of overall MSHR misses
system.cpu.dcache.ReadReq_mshr_miss_latency::cpu.data   1424411000                       # number of ReadReq MSHR miss cycles
system.cpu.dcache.ReadReq_mshr_miss_latency::total   1424411000                       # number of ReadReq MSHR miss cycles
system.cpu.dcache.WriteReq_mshr_miss_latency::cpu.data    929627500                       # number of WriteReq MSHR miss cycles
system.cpu.dcache.WriteReq_mshr_miss_latency::total    929627500                       # number of WriteReq MSHR miss cycles
system.cpu.dcache.demand_mshr_miss_latency::cpu.data   2354038500                       # number of demand (read+write) MSHR miss cycles
system.cpu.dcache.demand_mshr_miss_latency::total   2354038500                       # number of demand (read+write) MSHR miss cycles
system.cpu.dcache.overall_mshr_miss_latency::cpu.data   2354038500                       # number of overall MSHR miss cycles
system.cpu.dcache.overall_mshr_miss_latency::total   2354038500                       # number of overall MSHR miss cycles
system.cpu.dcache.ReadReq_mshr_miss_rate::cpu.data     0.006734                       # mshr miss rate for ReadReq accesses
system.cpu.dcache.ReadReq_mshr_miss_rate::total     0.006734                       # mshr miss rate for ReadReq accesses
system.cpu.dcache.WriteReq_mshr_miss_rate::cpu.data     0.014322                       # mshr miss rate for WriteReq accesses
system.cpu.dcache.WriteReq_mshr_miss_rate::total     0.014322                       # mshr miss rate for WriteReq accesses
system.cpu.dcache.demand_mshr_miss_rate::cpu.data     0.009225                       # mshr miss rate for demand accesses
system.cpu.dcache.demand_mshr_miss_rate::total     0.009225                       # mshr miss rate for demand accesses
system.cpu.dcache.overall_mshr_miss_rate::cpu.data     0.009225                       # mshr miss rate for overall accesses
system.cpu.dcache.overall_mshr_miss_rate::total     0.009225                       # mshr miss rate for overall accesses
system.cpu.dcache.ReadReq_avg_mshr_miss_latency::cpu.data 47126.914806                       # average ReadReq mshr miss latency
system.cpu.dcache.ReadReq_avg_mshr_miss_latency::total 47126.914806                       # average ReadReq mshr miss latency
system.cpu.dcache.WriteReq_avg_mshr_miss_latency::cpu.data 29586.184399                       # average WriteReq mshr miss latency
system.cpu.dcache.WriteReq_avg_mshr_miss_latency::total 29586.184399                       # average WriteReq mshr miss latency
system.cpu.dcache.demand_avg_mshr_miss_latency::cpu.data 38186.394900                       # average overall mshr miss latency
system.cpu.dcache.demand_avg_mshr_miss_latency::total 38186.394900                       # average overall mshr miss latency
system.cpu.dcache.overall_avg_mshr_miss_latency::cpu.data 38186.394900                       # average overall mshr miss latency
system.cpu.dcache.overall_avg_mshr_miss_latency::total 38186.394900                       # average overall mshr miss latency
system.cpu.dcache.replacements                  35724                       # number of replacements
system.cpu.dtb_walker_cache.tags.pwrStateResidencyTicks::UNDEFINED  44304580500                       # Cumulative time (in ticks) in various power states
system.cpu.dtb_walker_cache.tags.tagsinuse            0                       # Cycle average of tags in use
system.cpu.dtb_walker_cache.tags.total_refs            0                       # Total number of references to valid blocks.
system.cpu.dtb_walker_cache.tags.sampled_refs            0                       # Sample count of references to valid blocks.
system.cpu.dtb_walker_cache.tags.avg_refs          nan                       # Average number of references to valid blocks.
system.cpu.dtb_walker_cache.tags.warmup_cycle            0                       # Cycle when the warmup percentage was hit.
system.cpu.dtb_walker_cache.tags.tag_accesses            0                       # Number of tag accesses
system.cpu.dtb_walker_cache.tags.data_accesses            0                       # Number of data accesses
system.cpu.dtb_walker_cache.pwrStateResidencyTicks::UNDEFINED  44304580500                       # Cumulative time (in ticks) in various power states
system.cpu.dtb_walker_cache.blocked_cycles::no_mshrs            0                       # number of cycles access was blocked
system.cpu.dtb_walker_cache.blocked_cycles::no_targets            0                       # number of cycles access was blocked
system.cpu.dtb_walker_cache.blocked::no_mshrs            0                       # number of cycles access was blocked
system.cpu.dtb_walker_cache.blocked::no_targets            0                       # number of cycles access was blocked
system.cpu.dtb_walker_cache.avg_blocked_cycles::no_mshrs          nan                       # average number of cycles each access was blocked
system.cpu.dtb_walker_cache.avg_blocked_cycles::no_targets          nan                       # average number of cycles each access was blocked
system.cpu.dtb_walker_cache.replacements            0                       # number of replacements
system.cpu.icache.tags.pwrStateResidencyTicks::UNDEFINED  44304580500                       # Cumulative time (in ticks) in various power states
system.cpu.icache.tags.tagsinuse           281.158977                       # Cycle average of tags in use
system.cpu.icache.tags.total_refs            35206216                       # Total number of references to valid blocks.
system.cpu.icache.tags.sampled_refs               355                       # Sample count of references to valid blocks.
system.cpu.icache.tags.avg_refs          99172.439437                       # Average number of references to valid blocks.
system.cpu.icache.tags.warmup_cycle            445500                       # Cycle when the warmup percentage was hit.
system.cpu.icache.tags.occ_blocks::cpu.inst   281.158977                       # Average occupied blocks per requestor
system.cpu.icache.tags.occ_percent::cpu.inst     0.549139                       # Average percentage of cache occupancy
system.cpu.icache.tags.occ_percent::total     0.549139                       # Average percentage of cache occupancy
system.cpu.icache.tags.occ_task_id_blocks::1024          310                       # Occupied blocks per task id
system.cpu.icache.tags.age_task_id_blocks_1024::0           16                       # Occupied blocks per task id
system.cpu.icache.tags.age_task_id_blocks_1024::1           21                       # Occupied blocks per task id
system.cpu.icache.tags.age_task_id_blocks_1024::4          273                       # Occupied blocks per task id
system.cpu.icache.tags.occ_task_id_percent::1024     0.605469                       # Percentage of cache occupancy per task id
system.cpu.icache.tags.tag_accesses          70412787                       # Number of tag accesses
system.cpu.icache.tags.data_accesses         70412787                       # Number of data accesses
system.cpu.icache.pwrStateResidencyTicks::UNDEFINED  44304580500                       # Cumulative time (in ticks) in various power states
system.cpu.icache.ReadReq_hits::cpu.inst     35205861                       # number of ReadReq hits
system.cpu.icache.ReadReq_hits::total        35205861                       # number of ReadReq hits
system.cpu.icache.demand_hits::cpu.inst      35205861                       # number of demand (read+write) hits
system.cpu.icache.demand_hits::total         35205861                       # number of demand (read+write) hits
system.cpu.icache.overall_hits::cpu.inst     35205861                       # number of overall hits
system.cpu.icache.overall_hits::total        35205861                       # number of overall hits
system.cpu.icache.ReadReq_misses::cpu.inst          355                       # number of ReadReq misses
system.cpu.icache.ReadReq_misses::total           355                       # number of ReadReq misses
system.cpu.icache.demand_misses::cpu.inst          355                       # number of demand (read+write) misses
system.cpu.icache.demand_misses::total            355                       # number of demand (read+write) misses
system.cpu.icache.overall_misses::cpu.inst          355                       # number of overall misses
system.cpu.icache.overall_misses::total           355                       # number of overall misses
system.cpu.icache.ReadReq_miss_latency::cpu.inst     62070000                       # number of ReadReq miss cycles
system.cpu.icache.ReadReq_miss_latency::total     62070000                       # number of ReadReq miss cycles
system.cpu.icache.demand_miss_latency::cpu.inst     62070000                       # number of demand (read+write) miss cycles
system.cpu.icache.demand_miss_latency::total     62070000                       # number of demand (read+write) miss cycles
system.cpu.icache.overall_miss_latency::cpu.inst     62070000                       # number of overall miss cycles
system.cpu.icache.overall_miss_latency::total     62070000                       # number of overall miss cycles
system.cpu.icache.ReadReq_accesses::cpu.inst     35206216                       # number of ReadReq accesses(hits+misses)
system.cpu.icache.ReadReq_accesses::total     35206216                       # number of ReadReq accesses(hits+misses)
system.cpu.icache.demand_accesses::cpu.inst     35206216                       # number of demand (read+write) accesses
system.cpu.icache.demand_accesses::total     35206216                       # number of demand (read+write) accesses
system.cpu.icache.overall_accesses::cpu.inst     35206216                       # number of overall (read+write) accesses
system.cpu.icache.overall_accesses::total     35206216                       # number of overall (read+write) accesses
system.cpu.icache.ReadReq_miss_rate::cpu.inst     0.000010                       # miss rate for ReadReq accesses
system.cpu.icache.ReadReq_miss_rate::total     0.000010                       # miss rate for ReadReq accesses
system.cpu.icache.demand_miss_rate::cpu.inst     0.000010                       # miss rate for demand accesses
system.cpu.icache.demand_miss_rate::total     0.000010                       # miss rate for demand accesses
system.cpu.icache.overall_miss_rate::cpu.inst     0.000010                       # miss rate for overall accesses
system.cpu.icache.overall_miss_rate::total     0.000010                       # miss rate for overall accesses
system.cpu.icache.ReadReq_avg_miss_latency::cpu.inst 174845.070423                       # average ReadReq miss latency
system.cpu.icache.ReadReq_avg_miss_latency::total 174845.070423                       # average ReadReq miss latency
system.cpu.icache.demand_avg_miss_latency::cpu.inst 174845.070423                       # average overall miss latency
system.cpu.icache.demand_avg_miss_latency::total 174845.070423                       # average overall miss latency
system.cpu.icache.overall_avg_miss_latency::cpu.inst 174845.070423                       # average overall miss latency
system.cpu.icache.overall_avg_miss_latency::total 174845.070423                       # average overall miss latency
system.cpu.icache.blocked_cycles::no_mshrs            0                       # number of cycles access was blocked
system.cpu.icache.blocked_cycles::no_targets            0                       # number of cycles access was blocked
system.cpu.icache.blocked::no_mshrs                 0                       # number of cycles access was blocked
system.cpu.icache.blocked::no_targets               0                       # number of cycles access was blocked
system.cpu.icache.avg_blocked_cycles::no_mshrs          nan                       # average number of cycles each access was blocked
system.cpu.icache.avg_blocked_cycles::no_targets          nan                       # average number of cycles each access was blocked
system.cpu.icache.writebacks::writebacks           45                       # number of writebacks
system.cpu.icache.writebacks::total                45                       # number of writebacks
system.cpu.icache.ReadReq_mshr_misses::cpu.inst          355                       # number of ReadReq MSHR misses
system.cpu.icache.ReadReq_mshr_misses::total          355                       # number of ReadReq MSHR misses
system.cpu.icache.demand_mshr_misses::cpu.inst          355                       # number of demand (read+write) MSHR misses
system.cpu.icache.demand_mshr_misses::total          355                       # number of demand (read+write) MSHR misses
system.cpu.icache.overall_mshr_misses::cpu.inst          355                       # number of overall MSHR misses
system.cpu.icache.overall_mshr_misses::total          355                       # number of overall MSHR misses
system.cpu.icache.ReadReq_mshr_miss_latency::cpu.inst     61715000                       # number of ReadReq MSHR miss cycles
system.cpu.icache.ReadReq_mshr_miss_latency::total     61715000                       # number of ReadReq MSHR miss cycles
system.cpu.icache.demand_mshr_miss_latency::cpu.inst     61715000                       # number of demand (read+write) MSHR miss cycles
system.cpu.icache.demand_mshr_miss_latency::total     61715000                       # number of demand (read+write) MSHR miss cycles
system.cpu.icache.overall_mshr_miss_latency::cpu.inst     61715000                       # number of overall MSHR miss cycles
system.cpu.icache.overall_mshr_miss_latency::total     61715000                       # number of overall MSHR miss cycles
system.cpu.icache.ReadReq_mshr_miss_rate::cpu.inst     0.000010                       # mshr miss rate for ReadReq accesses
system.cpu.icache.ReadReq_mshr_miss_rate::total     0.000010                       # mshr miss rate for ReadReq accesses
system.cpu.icache.demand_mshr_miss_rate::cpu.inst     0.000010                       # mshr miss rate for demand accesses
system.cpu.icache.demand_mshr_miss_rate::total     0.000010                       # mshr miss rate for demand accesses
system.cpu.icache.overall_mshr_miss_rate::cpu.inst     0.000010                       # mshr miss rate for overall accesses
system.cpu.icache.overall_mshr_miss_rate::total     0.000010                       # mshr miss rate for overall accesses
system.cpu.icache.ReadReq_avg_mshr_miss_latency::cpu.inst 173845.070423                       # average ReadReq mshr miss latency
system.cpu.icache.ReadReq_avg_mshr_miss_latency::total 173845.070423                       # average ReadReq mshr miss latency
system.cpu.icache.demand_avg_mshr_miss_latency::cpu.inst 173845.070423                       # average overall mshr miss latency
system.cpu.icache.demand_avg_mshr_miss_latency::total 173845.070423                       # average overall mshr miss latency
system.cpu.icache.overall_avg_mshr_miss_latency::cpu.inst 173845.070423                       # average overall mshr miss latency
system.cpu.icache.overall_avg_mshr_miss_latency::total 173845.070423                       # average overall mshr miss latency
system.cpu.icache.replacements                     45                       # number of replacements
system.cpu.itb_walker_cache.tags.pwrStateResidencyTicks::UNDEFINED  44304580500                       # Cumulative time (in ticks) in various power states
system.cpu.itb_walker_cache.tags.tagsinuse            0                       # Cycle average of tags in use
system.cpu.itb_walker_cache.tags.total_refs            0                       # Total number of references to valid blocks.
system.cpu.itb_walker_cache.tags.sampled_refs            0                       # Sample count of references to valid blocks.
system.cpu.itb_walker_cache.tags.avg_refs          nan                       # Average number of references to valid blocks.
system.cpu.itb_walker_cache.tags.warmup_cycle            0                       # Cycle when the warmup percentage was hit.
system.cpu.itb_walker_cache.tags.tag_accesses            0                       # Number of tag accesses
system.cpu.itb_walker_cache.tags.data_accesses            0                       # Number of data accesses
system.cpu.itb_walker_cache.pwrStateResidencyTicks::UNDEFINED  44304580500                       # Cumulative time (in ticks) in various power states
system.cpu.itb_walker_cache.blocked_cycles::no_mshrs            0                       # number of cycles access was blocked
system.cpu.itb_walker_cache.blocked_cycles::no_targets            0                       # number of cycles access was blocked
system.cpu.itb_walker_cache.blocked::no_mshrs            0                       # number of cycles access was blocked
system.cpu.itb_walker_cache.blocked::no_targets            0                       # number of cycles access was blocked
system.cpu.itb_walker_cache.avg_blocked_cycles::no_mshrs          nan                       # average number of cycles each access was blocked
system.cpu.itb_walker_cache.avg_blocked_cycles::no_targets          nan                       # average number of cycles each access was blocked
system.cpu.itb_walker_cache.replacements            0                       # number of replacements
system.l2.tags.pwrStateResidencyTicks::UNDEFINED  44304580500                       # Cumulative time (in ticks) in various power states
system.l2.tags.tagsinuse                   510.339071                       # Cycle average of tags in use
system.l2.tags.total_refs                       94551                       # Total number of references to valid blocks.
system.l2.tags.sampled_refs                     67316                       # Sample count of references to valid blocks.
system.l2.tags.avg_refs                      1.404584                       # Average number of references to valid blocks.
system.l2.tags.warmup_cycle                    435000                       # Cycle when the warmup percentage was hit.
system.l2.tags.occ_blocks::writebacks      274.920418                       # Average occupied blocks per requestor
system.l2.tags.occ_blocks::cpu.inst          2.705499                       # Average occupied blocks per requestor
system.l2.tags.occ_blocks::cpu.data        232.713153                       # Average occupied blocks per requestor
system.l2.tags.occ_percent::writebacks       0.536954                       # Average percentage of cache occupancy
system.l2.tags.occ_percent::cpu.inst         0.005284                       # Average percentage of cache occupancy
system.l2.tags.occ_percent::cpu.data         0.454518                       # Average percentage of cache occupancy
system.l2.tags.occ_percent::total            0.996756                       # Average percentage of cache occupancy
system.l2.tags.occ_task_id_blocks::1024           512                       # Occupied blocks per task id
system.l2.tags.age_task_id_blocks_1024::0           44                       # Occupied blocks per task id
system.l2.tags.age_task_id_blocks_1024::1           50                       # Occupied blocks per task id
system.l2.tags.age_task_id_blocks_1024::2          179                       # Occupied blocks per task id
system.l2.tags.age_task_id_blocks_1024::3          239                       # Occupied blocks per task id
system.l2.tags.occ_task_id_percent::1024            1                       # Percentage of cache occupancy per task id
system.l2.tags.tag_accesses                    262856                       # Number of tag accesses
system.l2.tags.data_accesses                   262856                       # Number of data accesses
system.l2.pwrStateResidencyTicks::UNDEFINED  44304580500                       # Cumulative time (in ticks) in various power states
system.l2.WritebackDirty_hits::writebacks        33143                       # number of WritebackDirty hits
system.l2.WritebackDirty_hits::total            33143                       # number of WritebackDirty hits
system.l2.WritebackClean_hits::writebacks           45                       # number of WritebackClean hits
system.l2.WritebackClean_hits::total               45                       # number of WritebackClean hits
system.l2.UpgradeReq_hits::cpu.data             24256                       # number of UpgradeReq hits
system.l2.UpgradeReq_hits::total                24256                       # number of UpgradeReq hits
system.l2.ReadExReq_hits::cpu.data                 65                       # number of ReadExReq hits
system.l2.ReadExReq_hits::total                    65                       # number of ReadExReq hits
system.l2.ReadSharedReq_hits::cpu.data           2079                       # number of ReadSharedReq hits
system.l2.ReadSharedReq_hits::total              2079                       # number of ReadSharedReq hits
system.l2.demand_hits::cpu.data                  2144                       # number of demand (read+write) hits
system.l2.demand_hits::total                     2144                       # number of demand (read+write) hits
system.l2.overall_hits::cpu.data                 2144                       # number of overall hits
system.l2.overall_hits::total                    2144                       # number of overall hits
system.l2.UpgradeReq_misses::cpu.data             642                       # number of UpgradeReq misses
system.l2.UpgradeReq_misses::total                642                       # number of UpgradeReq misses
system.l2.ReadExReq_misses::cpu.data             6458                       # number of ReadExReq misses
system.l2.ReadExReq_misses::total                6458                       # number of ReadExReq misses
system.l2.ReadCleanReq_misses::cpu.inst           355                       # number of ReadCleanReq misses
system.l2.ReadCleanReq_misses::total              355                       # number of ReadCleanReq misses
system.l2.ReadSharedReq_misses::cpu.data        28146                       # number of ReadSharedReq misses
system.l2.ReadSharedReq_misses::total           28146                       # number of ReadSharedReq misses
system.l2.demand_misses::cpu.inst                 355                       # number of demand (read+write) misses
system.l2.demand_misses::cpu.data               34604                       # number of demand (read+write) misses
system.l2.demand_misses::total                  34959                       # number of demand (read+write) misses
system.l2.overall_misses::cpu.inst                355                       # number of overall misses
system.l2.overall_misses::cpu.data              34604                       # number of overall misses
system.l2.overall_misses::total                 34959                       # number of overall misses
system.l2.ReadExReq_miss_latency::cpu.data    611395500                       # number of ReadExReq miss cycles
system.l2.ReadExReq_miss_latency::total     611395500                       # number of ReadExReq miss cycles
system.l2.ReadCleanReq_miss_latency::cpu.inst     61179500                       # number of ReadCleanReq miss cycles
system.l2.ReadCleanReq_miss_latency::total     61179500                       # number of ReadCleanReq miss cycles
system.l2.ReadSharedReq_miss_latency::cpu.data   1357244000                       # number of ReadSharedReq miss cycles
system.l2.ReadSharedReq_miss_latency::total   1357244000                       # number of ReadSharedReq miss cycles
system.l2.demand_miss_latency::cpu.inst      61179500                       # number of demand (read+write) miss cycles
system.l2.demand_miss_latency::cpu.data    1968639500                       # number of demand (read+write) miss cycles
system.l2.demand_miss_latency::total       2029819000                       # number of demand (read+write) miss cycles
system.l2.overall_miss_latency::cpu.inst     61179500                       # number of overall miss cycles
system.l2.overall_miss_latency::cpu.data   1968639500                       # number of overall miss cycles
system.l2.overall_miss_latency::total      2029819000                       # number of overall miss cycles
system.l2.WritebackDirty_accesses::writebacks        33143                       # number of WritebackDirty accesses(hits+misses)
system.l2.WritebackDirty_accesses::total        33143                       # number of WritebackDirty accesses(hits+misses)
system.l2.WritebackClean_accesses::writebacks           45                       # number of WritebackClean accesses(hits+misses)
system.l2.WritebackClean_accesses::total           45                       # number of WritebackClean accesses(hits+misses)
system.l2.UpgradeReq_accesses::cpu.data         24898                       # number of UpgradeReq accesses(hits+misses)
system.l2.UpgradeReq_accesses::total            24898                       # number of UpgradeReq accesses(hits+misses)
system.l2.ReadExReq_accesses::cpu.data           6523                       # number of ReadExReq accesses(hits+misses)
system.l2.ReadExReq_accesses::total              6523                       # number of ReadExReq accesses(hits+misses)
system.l2.ReadCleanReq_accesses::cpu.inst          355                       # number of ReadCleanReq accesses(hits+misses)
system.l2.ReadCleanReq_accesses::total            355                       # number of ReadCleanReq accesses(hits+misses)
system.l2.ReadSharedReq_accesses::cpu.data        30225                       # number of ReadSharedReq accesses(hits+misses)
system.l2.ReadSharedReq_accesses::total         30225                       # number of ReadSharedReq accesses(hits+misses)
system.l2.demand_accesses::cpu.inst               355                       # number of demand (read+write) accesses
system.l2.demand_accesses::cpu.data             36748                       # number of demand (read+write) accesses
system.l2.demand_accesses::total                37103                       # number of demand (read+write) accesses
system.l2.overall_accesses::cpu.inst              355                       # number of overall (read+write) accesses
system.l2.overall_accesses::cpu.data            36748                       # number of overall (read+write) accesses
system.l2.overall_accesses::total               37103                       # number of overall (read+write) accesses
system.l2.UpgradeReq_miss_rate::cpu.data     0.025785                       # miss rate for UpgradeReq accesses
system.l2.UpgradeReq_miss_rate::total        0.025785                       # miss rate for UpgradeReq accesses
system.l2.ReadExReq_miss_rate::cpu.data      0.990035                       # miss rate for ReadExReq accesses
system.l2.ReadExReq_miss_rate::total         0.990035                       # miss rate for ReadExReq accesses
system.l2.ReadCleanReq_miss_rate::cpu.inst            1                       # miss rate for ReadCleanReq accesses
system.l2.ReadCleanReq_miss_rate::total             1                       # miss rate for ReadCleanReq accesses
system.l2.ReadSharedReq_miss_rate::cpu.data     0.931216                       # miss rate for ReadSharedReq accesses
system.l2.ReadSharedReq_miss_rate::total     0.931216                       # miss rate for ReadSharedReq accesses
system.l2.demand_miss_rate::cpu.inst                1                       # miss rate for demand accesses
system.l2.demand_miss_rate::cpu.data         0.941657                       # miss rate for demand accesses
system.l2.demand_miss_rate::total            0.942215                       # miss rate for demand accesses
system.l2.overall_miss_rate::cpu.inst               1                       # miss rate for overall accesses
system.l2.overall_miss_rate::cpu.data        0.941657                       # miss rate for overall accesses
system.l2.overall_miss_rate::total           0.942215                       # miss rate for overall accesses
system.l2.ReadExReq_avg_miss_latency::cpu.data 94672.576649                       # average ReadExReq miss latency
system.l2.ReadExReq_avg_miss_latency::total 94672.576649                       # average ReadExReq miss latency
system.l2.ReadCleanReq_avg_miss_latency::cpu.inst 172336.619718                       # average ReadCleanReq miss latency
system.l2.ReadCleanReq_avg_miss_latency::total 172336.619718                       # average ReadCleanReq miss latency
system.l2.ReadSharedReq_avg_miss_latency::cpu.data 48221.559014                       # average ReadSharedReq miss latency
system.l2.ReadSharedReq_avg_miss_latency::total 48221.559014                       # average ReadSharedReq miss latency
system.l2.demand_avg_miss_latency::cpu.inst 172336.619718                       # average overall miss latency
system.l2.demand_avg_miss_latency::cpu.data 56890.518437                       # average overall miss latency
system.l2.demand_avg_miss_latency::total 58062.845047                       # average overall miss latency
system.l2.overall_avg_miss_latency::cpu.inst 172336.619718                       # average overall miss latency
system.l2.overall_avg_miss_latency::cpu.data 56890.518437                       # average overall miss latency
system.l2.overall_avg_miss_latency::total 58062.845047                       # average overall miss latency
system.l2.blocked_cycles::no_mshrs                  0                       # number of cycles access was blocked
system.l2.blocked_cycles::no_targets                0                       # number of cycles access was blocked
system.l2.blocked::no_mshrs                         0                       # number of cycles access was blocked
system.l2.blocked::no_targets                       0                       # number of cycles access was blocked
system.l2.avg_blocked_cycles::no_mshrs            nan                       # average number of cycles each access was blocked
system.l2.avg_blocked_cycles::no_targets          nan                       # average number of cycles each access was blocked
system.l2.writebacks::writebacks                33892                       # number of writebacks
system.l2.writebacks::total                     33892                       # number of writebacks
system.l2.CleanEvict_mshr_misses::writebacks         2577                       # number of CleanEvict MSHR misses
system.l2.CleanEvict_mshr_misses::total          2577                       # number of CleanEvict MSHR misses
system.l2.UpgradeReq_mshr_misses::cpu.data          642                       # number of UpgradeReq MSHR misses
system.l2.UpgradeReq_mshr_misses::total           642                       # number of UpgradeReq MSHR misses
system.l2.ReadExReq_mshr_misses::cpu.data         6458                       # number of ReadExReq MSHR misses
system.l2.ReadExReq_mshr_misses::total           6458                       # number of ReadExReq MSHR misses
system.l2.ReadCleanReq_mshr_misses::cpu.inst          355                       # number of ReadCleanReq MSHR misses
system.l2.ReadCleanReq_mshr_misses::total          355                       # number of ReadCleanReq MSHR misses
system.l2.ReadSharedReq_mshr_misses::cpu.data        28146                       # number of ReadSharedReq MSHR misses
system.l2.ReadSharedReq_mshr_misses::total        28146                       # number of ReadSharedReq MSHR misses
system.l2.demand_mshr_misses::cpu.inst            355                       # number of demand (read+write) MSHR misses
system.l2.demand_mshr_misses::cpu.data          34604                       # number of demand (read+write) MSHR misses
system.l2.demand_mshr_misses::total             34959                       # number of demand (read+write) MSHR misses
system.l2.overall_mshr_misses::cpu.inst           355                       # number of overall MSHR misses
system.l2.overall_mshr_misses::cpu.data         34604                       # number of overall MSHR misses
system.l2.overall_mshr_misses::total            34959                       # number of overall MSHR misses
system.l2.UpgradeReq_mshr_miss_latency::cpu.data      9309000                       # number of UpgradeReq MSHR miss cycles
system.l2.UpgradeReq_mshr_miss_latency::total      9309000                       # number of UpgradeReq MSHR miss cycles
system.l2.ReadExReq_mshr_miss_latency::cpu.data    546815500                       # number of ReadExReq MSHR miss cycles
system.l2.ReadExReq_mshr_miss_latency::total    546815500                       # number of ReadExReq MSHR miss cycles
system.l2.ReadCleanReq_mshr_miss_latency::cpu.inst     57629500                       # number of ReadCleanReq MSHR miss cycles
system.l2.ReadCleanReq_mshr_miss_latency::total     57629500                       # number of ReadCleanReq MSHR miss cycles
system.l2.ReadSharedReq_mshr_miss_latency::cpu.data   1075784000                       # number of ReadSharedReq MSHR miss cycles
system.l2.ReadSharedReq_mshr_miss_latency::total   1075784000                       # number of ReadSharedReq MSHR miss cycles
system.l2.demand_mshr_miss_latency::cpu.inst     57629500                       # number of demand (read+write) MSHR miss cycles
system.l2.demand_mshr_miss_latency::cpu.data   1622599500                       # number of demand (read+write) MSHR miss cycles
system.l2.demand_mshr_miss_latency::total   1680229000                       # number of demand (read+write) MSHR miss cycles
system.l2.overall_mshr_miss_latency::cpu.inst     57629500                       # number of overall MSHR miss cycles
system.l2.overall_mshr_miss_latency::cpu.data   1622599500                       # number of overall MSHR miss cycles
system.l2.overall_mshr_miss_latency::total   1680229000                       # number of overall MSHR miss cycles
system.l2.CleanEvict_mshr_miss_rate::writebacks          inf                       # mshr miss rate for CleanEvict accesses
system.l2.CleanEvict_mshr_miss_rate::total          inf                       # mshr miss rate for CleanEvict accesses
system.l2.UpgradeReq_mshr_miss_rate::cpu.data     0.025785                       # mshr miss rate for UpgradeReq accesses
system.l2.UpgradeReq_mshr_miss_rate::total     0.025785                       # mshr miss rate for UpgradeReq accesses
system.l2.ReadExReq_mshr_miss_rate::cpu.data     0.990035                       # mshr miss rate for ReadExReq accesses
system.l2.ReadExReq_mshr_miss_rate::total     0.990035                       # mshr miss rate for ReadExReq accesses
system.l2.ReadCleanReq_mshr_miss_rate::cpu.inst            1                       # mshr miss rate for ReadCleanReq accesses
system.l2.ReadCleanReq_mshr_miss_rate::total            1                       # mshr miss rate for ReadCleanReq accesses
system.l2.ReadSharedReq_mshr_miss_rate::cpu.data     0.931216                       # mshr miss rate for ReadSharedReq accesses
system.l2.ReadSharedReq_mshr_miss_rate::total     0.931216                       # mshr miss rate for ReadSharedReq accesses
system.l2.demand_mshr_miss_rate::cpu.inst            1                       # mshr miss rate for demand accesses
system.l2.demand_mshr_miss_rate::cpu.data     0.941657                       # mshr miss rate for demand accesses
system.l2.demand_mshr_miss_rate::total       0.942215                       # mshr miss rate for demand accesses
system.l2.overall_mshr_miss_rate::cpu.inst            1                       # mshr miss rate for overall accesses
system.l2.overall_mshr_miss_rate::cpu.data     0.941657                       # mshr miss rate for overall accesses
system.l2.overall_mshr_miss_rate::total      0.942215                       # mshr miss rate for overall accesses
system.l2.UpgradeReq_avg_mshr_miss_latency::cpu.data        14500                       # average UpgradeReq mshr miss latency
system.l2.UpgradeReq_avg_mshr_miss_latency::total        14500                       # average UpgradeReq mshr miss latency
system.l2.ReadExReq_avg_mshr_miss_latency::cpu.data 84672.576649                       # average ReadExReq mshr miss latency
system.l2.ReadExReq_avg_mshr_miss_latency::total 84672.576649                       # average ReadExReq mshr miss latency
system.l2.ReadCleanReq_avg_mshr_miss_latency::cpu.inst 162336.619718                       # average ReadCleanReq mshr miss latency
system.l2.ReadCleanReq_avg_mshr_miss_latency::total 162336.619718                       # average ReadCleanReq mshr miss latency
system.l2.ReadSharedReq_avg_mshr_miss_latency::cpu.data 38221.559014                       # average ReadSharedReq mshr miss latency
system.l2.ReadSharedReq_avg_mshr_miss_latency::total 38221.559014                       # average ReadSharedReq mshr miss latency
system.l2.demand_avg_mshr_miss_latency::cpu.inst 162336.619718                       # average overall mshr miss latency
system.l2.demand_avg_mshr_miss_latency::cpu.data 46890.518437                       # average overall mshr miss latency
system.l2.demand_avg_mshr_miss_latency::total 48062.845047                       # average overall mshr miss latency
system.l2.overall_avg_mshr_miss_latency::cpu.inst 162336.619718                       # average overall mshr miss latency
system.l2.overall_avg_mshr_miss_latency::cpu.data 46890.518437                       # average overall mshr miss latency
system.l2.overall_avg_mshr_miss_latency::total 48062.845047                       # average overall mshr miss latency
system.l2.replacements                          66804                       # number of replacements
system.l3.tags.pwrStateResidencyTicks::UNDEFINED  44304580500                       # Cumulative time (in ticks) in various power states
system.l3.tags.tagsinuse                  5591.400259                       # Cycle average of tags in use
system.l3.tags.total_refs                       68851                       # Total number of references to valid blocks.
system.l3.tags.sampled_refs                      7776                       # Sample count of references to valid blocks.
system.l3.tags.avg_refs                      8.854295                       # Average number of references to valid blocks.
system.l3.tags.warmup_cycle                    419000                       # Cycle when the warmup percentage was hit.
system.l3.tags.occ_blocks::writebacks       53.299006                       # Average occupied blocks per requestor
system.l3.tags.occ_blocks::cpu.inst        223.580216                       # Average occupied blocks per requestor
system.l3.tags.occ_blocks::cpu.data       5314.521037                       # Average occupied blocks per requestor
system.l3.tags.occ_percent::writebacks       0.006506                       # Average percentage of cache occupancy
system.l3.tags.occ_percent::cpu.inst         0.027293                       # Average percentage of cache occupancy
system.l3.tags.occ_percent::cpu.data         0.648745                       # Average percentage of cache occupancy
system.l3.tags.occ_percent::total            0.682544                       # Average percentage of cache occupancy
system.l3.tags.occ_task_id_blocks::1024          6400                       # Occupied blocks per task id
system.l3.tags.age_task_id_blocks_1024::0           27                       # Occupied blocks per task id
system.l3.tags.age_task_id_blocks_1024::1           35                       # Occupied blocks per task id
system.l3.tags.age_task_id_blocks_1024::2           53                       # Occupied blocks per task id
system.l3.tags.age_task_id_blocks_1024::3           64                       # Occupied blocks per task id
system.l3.tags.age_task_id_blocks_1024::4         6221                       # Occupied blocks per task id
system.l3.tags.occ_task_id_percent::1024     0.781250                       # Percentage of cache occupancy per task id
system.l3.tags.tag_accesses                    145478                       # Number of tag accesses
system.l3.tags.data_accesses                   145478                       # Number of data accesses
system.l3.pwrStateResidencyTicks::UNDEFINED  44304580500                       # Cumulative time (in ticks) in various power states
system.l3.WritebackDirty_hits::writebacks        33892                       # number of WritebackDirty hits
system.l3.WritebackDirty_hits::total            33892                       # number of WritebackDirty hits
system.l3.ReadExReq_hits::cpu.data                 74                       # number of ReadExReq hits
system.l3.ReadExReq_hits::total                    74                       # number of ReadExReq hits
system.l3.ReadSharedReq_hits::cpu.data          27396                       # number of ReadSharedReq hits
system.l3.ReadSharedReq_hits::total             27396                       # number of ReadSharedReq hits
system.l3.demand_hits::cpu.data                 27470                       # number of demand (read+write) hits
system.l3.demand_hits::total                    27470                       # number of demand (read+write) hits
system.l3.overall_hits::cpu.data                27470                       # number of overall hits
system.l3.overall_hits::total                   27470                       # number of overall hits
system.l3.ReadExReq_misses::cpu.data             6384                       # number of ReadExReq misses
system.l3.ReadExReq_misses::total                6384                       # number of ReadExReq misses
system.l3.ReadSharedReq_misses::cpu.inst          355                       # number of ReadSharedReq misses
system.l3.ReadSharedReq_misses::cpu.data          750                       # number of ReadSharedReq misses
system.l3.ReadSharedReq_misses::total            1105                       # number of ReadSharedReq misses
system.l3.demand_misses::cpu.inst                 355                       # number of demand (read+write) misses
system.l3.demand_misses::cpu.data                7134                       # number of demand (read+write) misses
system.l3.demand_misses::total                   7489                       # number of demand (read+write) misses
system.l3.overall_misses::cpu.inst                355                       # number of overall misses
system.l3.overall_misses::cpu.data               7134                       # number of overall misses
system.l3.overall_misses::total                  7489                       # number of overall misses
system.l3.ReadExReq_miss_latency::cpu.data    471142500                       # number of ReadExReq miss cycles
system.l3.ReadExReq_miss_latency::total     471142500                       # number of ReadExReq miss cycles
system.l3.ReadSharedReq_miss_latency::cpu.inst     53547000                       # number of ReadSharedReq miss cycles
system.l3.ReadSharedReq_miss_latency::cpu.data    226864000                       # number of ReadSharedReq miss cycles
system.l3.ReadSharedReq_miss_latency::total    280411000                       # number of ReadSharedReq miss cycles
system.l3.demand_miss_latency::cpu.inst      53547000                       # number of demand (read+write) miss cycles
system.l3.demand_miss_latency::cpu.data     698006500                       # number of demand (read+write) miss cycles
system.l3.demand_miss_latency::total        751553500                       # number of demand (read+write) miss cycles
system.l3.overall_miss_latency::cpu.inst     53547000                       # number of overall miss cycles
system.l3.overall_miss_latency::cpu.data    698006500                       # number of overall miss cycles
system.l3.overall_miss_latency::total       751553500                       # number of overall miss cycles
system.l3.WritebackDirty_accesses::writebacks        33892                       # number of WritebackDirty accesses(hits+misses)
system.l3.WritebackDirty_accesses::total        33892                       # number of WritebackDirty accesses(hits+misses)
system.l3.ReadExReq_accesses::cpu.data           6458                       # number of ReadExReq accesses(hits+misses)
system.l3.ReadExReq_accesses::total              6458                       # number of ReadExReq accesses(hits+misses)
system.l3.ReadSharedReq_accesses::cpu.inst          355                       # number of ReadSharedReq accesses(hits+misses)
system.l3.ReadSharedReq_accesses::cpu.data        28146                       # number of ReadSharedReq accesses(hits+misses)
system.l3.ReadSharedReq_accesses::total         28501                       # number of ReadSharedReq accesses(hits+misses)
system.l3.demand_accesses::cpu.inst               355                       # number of demand (read+write) accesses
system.l3.demand_accesses::cpu.data             34604                       # number of demand (read+write) accesses
system.l3.demand_accesses::total                34959                       # number of demand (read+write) accesses
system.l3.overall_accesses::cpu.inst              355                       # number of overall (read+write) accesses
system.l3.overall_accesses::cpu.data            34604                       # number of overall (read+write) accesses
system.l3.overall_accesses::total               34959                       # number of overall (read+write) accesses
system.l3.ReadExReq_miss_rate::cpu.data      0.988541                       # miss rate for ReadExReq accesses
system.l3.ReadExReq_miss_rate::total         0.988541                       # miss rate for ReadExReq accesses
system.l3.ReadSharedReq_miss_rate::cpu.inst            1                       # miss rate for ReadSharedReq accesses
system.l3.ReadSharedReq_miss_rate::cpu.data     0.026647                       # miss rate for ReadSharedReq accesses
system.l3.ReadSharedReq_miss_rate::total     0.038771                       # miss rate for ReadSharedReq accesses
system.l3.demand_miss_rate::cpu.inst                1                       # miss rate for demand accesses
system.l3.demand_miss_rate::cpu.data         0.206161                       # miss rate for demand accesses
system.l3.demand_miss_rate::total            0.214222                       # miss rate for demand accesses
system.l3.overall_miss_rate::cpu.inst               1                       # miss rate for overall accesses
system.l3.overall_miss_rate::cpu.data        0.206161                       # miss rate for overall accesses
system.l3.overall_miss_rate::total           0.214222                       # miss rate for overall accesses
system.l3.ReadExReq_avg_miss_latency::cpu.data 73800.516917                       # average ReadExReq miss latency
system.l3.ReadExReq_avg_miss_latency::total 73800.516917                       # average ReadExReq miss latency
system.l3.ReadSharedReq_avg_miss_latency::cpu.inst 150836.619718                       # average ReadSharedReq miss latency
system.l3.ReadSharedReq_avg_miss_latency::cpu.data 302485.333333                       # average ReadSharedReq miss latency
system.l3.ReadSharedReq_avg_miss_latency::total 253765.610860                       # average ReadSharedReq miss latency
system.l3.demand_avg_miss_latency::cpu.inst 150836.619718                       # average overall miss latency
system.l3.demand_avg_miss_latency::cpu.data 97842.234371                       # average overall miss latency
system.l3.demand_avg_miss_latency::total 100354.319669                       # average overall miss latency
system.l3.overall_avg_miss_latency::cpu.inst 150836.619718                       # average overall miss latency
system.l3.overall_avg_miss_latency::cpu.data 97842.234371                       # average overall miss latency
system.l3.overall_avg_miss_latency::total 100354.319669                       # average overall miss latency
system.l3.blocked_cycles::no_mshrs                  0                       # number of cycles access was blocked
system.l3.blocked_cycles::no_targets                0                       # number of cycles access was blocked
system.l3.blocked::no_mshrs                         0                       # number of cycles access was blocked
system.l3.blocked::no_targets                       0                       # number of cycles access was blocked
system.l3.avg_blocked_cycles::no_mshrs            nan                       # average number of cycles each access was blocked
system.l3.avg_blocked_cycles::no_targets          nan                       # average number of cycles each access was blocked
system.l3.writebacks::writebacks                  902                       # number of writebacks
system.l3.writebacks::total                       902                       # number of writebacks
system.l3.ReadExReq_mshr_misses::cpu.data         6384                       # number of ReadExReq MSHR misses
system.l3.ReadExReq_mshr_misses::total           6384                       # number of ReadExReq MSHR misses
system.l3.ReadSharedReq_mshr_misses::cpu.inst          355                       # number of ReadSharedReq MSHR misses
system.l3.ReadSharedReq_mshr_misses::cpu.data          750                       # number of ReadSharedReq MSHR misses
system.l3.ReadSharedReq_mshr_misses::total         1105                       # number of ReadSharedReq MSHR misses
system.l3.demand_mshr_misses::cpu.inst            355                       # number of demand (read+write) MSHR misses
system.l3.demand_mshr_misses::cpu.data           7134                       # number of demand (read+write) MSHR misses
system.l3.demand_mshr_misses::total              7489                       # number of demand (read+write) MSHR misses
system.l3.overall_mshr_misses::cpu.inst           355                       # number of overall MSHR misses
system.l3.overall_mshr_misses::cpu.data          7134                       # number of overall MSHR misses
system.l3.overall_mshr_misses::total             7489                       # number of overall MSHR misses
system.l3.ReadExReq_mshr_miss_latency::cpu.data    375382500                       # number of ReadExReq MSHR miss cycles
system.l3.ReadExReq_mshr_miss_latency::total    375382500                       # number of ReadExReq MSHR miss cycles
system.l3.ReadSharedReq_mshr_miss_latency::cpu.inst     48222000                       # number of ReadSharedReq MSHR miss cycles
system.l3.ReadSharedReq_mshr_miss_latency::cpu.data    215614000                       # number of ReadSharedReq MSHR miss cycles
system.l3.ReadSharedReq_mshr_miss_latency::total    263836000                       # number of ReadSharedReq MSHR miss cycles
system.l3.demand_mshr_miss_latency::cpu.inst     48222000                       # number of demand (read+write) MSHR miss cycles
system.l3.demand_mshr_miss_latency::cpu.data    590996500                       # number of demand (read+write) MSHR miss cycles
system.l3.demand_mshr_miss_latency::total    639218500                       # number of demand (read+write) MSHR miss cycles
system.l3.overall_mshr_miss_latency::cpu.inst     48222000                       # number of overall MSHR miss cycles
system.l3.overall_mshr_miss_latency::cpu.data    590996500                       # number of overall MSHR miss cycles
system.l3.overall_mshr_miss_latency::total    639218500                       # number of overall MSHR miss cycles
system.l3.ReadExReq_mshr_miss_rate::cpu.data     0.988541                       # mshr miss rate for ReadExReq accesses
system.l3.ReadExReq_mshr_miss_rate::total     0.988541                       # mshr miss rate for ReadExReq accesses
system.l3.ReadSharedReq_mshr_miss_rate::cpu.inst            1                       # mshr miss rate for ReadSharedReq accesses
system.l3.ReadSharedReq_mshr_miss_rate::cpu.data     0.026647                       # mshr miss rate for ReadSharedReq accesses
system.l3.ReadSharedReq_mshr_miss_rate::total     0.038771                       # mshr miss rate for ReadSharedReq accesses
system.l3.demand_mshr_miss_rate::cpu.inst            1                       # mshr miss rate for demand accesses
system.l3.demand_mshr_miss_rate::cpu.data     0.206161                       # mshr miss rate for demand accesses
system.l3.demand_mshr_miss_rate::total       0.214222                       # mshr miss rate for demand accesses
system.l3.overall_mshr_miss_rate::cpu.inst            1                       # mshr miss rate for overall accesses
system.l3.overall_mshr_miss_rate::cpu.data     0.206161                       # mshr miss rate for overall accesses
system.l3.overall_mshr_miss_rate::total      0.214222                       # mshr miss rate for overall accesses
system.l3.ReadExReq_avg_mshr_miss_latency::cpu.data 58800.516917                       # average ReadExReq mshr miss latency
system.l3.ReadExReq_avg_mshr_miss_latency::total 58800.516917                       # average ReadExReq mshr miss latency
system.l3.ReadSharedReq_avg_mshr_miss_latency::cpu.inst 135836.619718                       # average ReadSharedReq mshr miss latency
system.l3.ReadSharedReq_avg_mshr_miss_latency::cpu.data 287485.333333                       # average ReadSharedReq mshr miss latency
system.l3.ReadSharedReq_avg_mshr_miss_latency::total 238765.610860                       # average ReadSharedReq mshr miss latency
system.l3.demand_avg_mshr_miss_latency::cpu.inst 135836.619718                       # average overall mshr miss latency
system.l3.demand_avg_mshr_miss_latency::cpu.data 82842.234371                       # average overall mshr miss latency
system.l3.demand_avg_mshr_miss_latency::total 85354.319669                       # average overall mshr miss latency
system.l3.overall_avg_mshr_miss_latency::cpu.inst 135836.619718                       # average overall mshr miss latency
system.l3.overall_avg_mshr_miss_latency::cpu.data 82842.234371                       # average overall mshr miss latency
system.l3.overall_avg_mshr_miss_latency::total 85354.319669                       # average overall mshr miss latency
system.l3.replacements                           1376                       # number of replacements
system.membus.snoop_filter.tot_requests          8604                       # Total number of requests made to the snoop filter.
system.membus.snoop_filter.hit_single_requests         1126                       # Number of requests hitting in the snoop filter with a single holder of the requested data.
system.membus.snoop_filter.hit_multi_requests            0                       # Number of requests hitting in the snoop filter with multiple (>1) holders of the requested data.
system.membus.snoop_filter.tot_snoops               0                       # Total number of snoops made to the snoop filter.
system.membus.snoop_filter.hit_single_snoops            0                       # Number of snoops hitting in the snoop filter with a single holder of the requested data.
system.membus.snoop_filter.hit_multi_snoops            0                       # Number of snoops hitting in the snoop filter with multiple (>1) holders of the requested data.
system.membus.pwrStateResidencyTicks::UNDEFINED  44304580500                       # Cumulative time (in ticks) in various power states
system.membus.trans_dist::ReadResp               1105                       # Transaction distribution
system.membus.trans_dist::WritebackDirty          902                       # Transaction distribution
system.membus.trans_dist::CleanEvict               75                       # Transaction distribution
system.membus.trans_dist::ReadExReq              6384                       # Transaction distribution
system.membus.trans_dist::ReadExResp             6384                       # Transaction distribution
system.membus.trans_dist::ReadSharedReq          1105                       # Transaction distribution
system.membus.pkt_count_system.l3.mem_side::system.mem_ctrls.port        15955                       # Packet count per connected master and slave (bytes)
system.membus.pkt_count_system.l3.mem_side::total        15955                       # Packet count per connected master and slave (bytes)
system.membus.pkt_count::total                  15955                       # Packet count per connected master and slave (bytes)
system.membus.pkt_size_system.l3.mem_side::system.mem_ctrls.port       537024                       # Cumulative packet size per connected master and slave (bytes)
system.membus.pkt_size_system.l3.mem_side::total       537024                       # Cumulative packet size per connected master and slave (bytes)
system.membus.pkt_size::total                  537024                       # Cumulative packet size per connected master and slave (bytes)
system.membus.snoops                                0                       # Total snoops (count)
system.membus.snoopTraffic                          0                       # Total snoop traffic (bytes)
system.membus.snoop_fanout::samples              7489                       # Request fanout histogram
system.membus.snoop_fanout::mean                    0                       # Request fanout histogram
system.membus.snoop_fanout::stdev                   0                       # Request fanout histogram
system.membus.snoop_fanout::underflows              0      0.00%      0.00% # Request fanout histogram
system.membus.snoop_fanout::0                    7489    100.00%    100.00% # Request fanout histogram
system.membus.snoop_fanout::1                       0      0.00%    100.00% # Request fanout histogram
system.membus.snoop_fanout::overflows               0      0.00%    100.00% # Request fanout histogram
system.membus.snoop_fanout::min_value               0                       # Request fanout histogram
system.membus.snoop_fanout::max_value               0                       # Request fanout histogram
system.membus.snoop_fanout::total                7489                       # Request fanout histogram
system.membus.reqLayer2.occupancy            12217500                       # Layer occupancy (ticks)
system.membus.reqLayer2.utilization               0.0                       # Layer utilization (%)
system.membus.respLayer1.occupancy           37450500                       # Layer occupancy (ticks)
system.membus.respLayer1.utilization              0.1                       # Layer utilization (%)
system.tol2bus.snoop_filter.tot_requests        97770                       # Total number of requests made to the snoop filter.
system.tol2bus.snoop_filter.hit_single_requests        60667                       # Number of requests hitting in the snoop filter with a single holder of the requested data.
system.tol2bus.snoop_filter.hit_multi_requests            0                       # Number of requests hitting in the snoop filter with multiple (>1) holders of the requested data.
system.tol2bus.snoop_filter.tot_snoops          36388                       # Total number of snoops made to the snoop filter.
system.tol2bus.snoop_filter.hit_single_snoops        36388                       # Number of snoops hitting in the snoop filter with a single holder of the requested data.
system.tol2bus.snoop_filter.hit_multi_snoops            0                       # Number of snoops hitting in the snoop filter with multiple (>1) holders of the requested data.
system.tol2bus.pwrStateResidencyTicks::UNDEFINED  44304580500                       # Cumulative time (in ticks) in various power states
system.tol2bus.trans_dist::ReadResp             30580                       # Transaction distribution
system.tol2bus.trans_dist::WritebackDirty        67037                       # Transaction distribution
system.tol2bus.trans_dist::WritebackClean           45                       # Transaction distribution
system.tol2bus.trans_dist::CleanEvict           35892                       # Transaction distribution
system.tol2bus.trans_dist::UpgradeReq           24898                       # Transaction distribution
system.tol2bus.trans_dist::UpgradeResp          24898                       # Transaction distribution
system.tol2bus.trans_dist::ReadExReq             6523                       # Transaction distribution
system.tol2bus.trans_dist::ReadExResp            6523                       # Transaction distribution
system.tol2bus.trans_dist::ReadCleanReq           355                       # Transaction distribution
system.tol2bus.trans_dist::ReadSharedReq        30225                       # Transaction distribution
system.tol2bus.pkt_count_system.cpu.icache.mem_side::system.l2.cpu_side          755                       # Packet count per connected master and slave (bytes)
system.tol2bus.pkt_count_system.cpu.dcache.mem_side::system.l2.cpu_side       159016                       # Packet count per connected master and slave (bytes)
system.tol2bus.pkt_count::total                159771                       # Packet count per connected master and slave (bytes)
system.tol2bus.pkt_size_system.cpu.icache.mem_side::system.l2.cpu_side        25600                       # Cumulative packet size per connected master and slave (bytes)
system.tol2bus.pkt_size_system.cpu.dcache.mem_side::system.l2.cpu_side      4473024                       # Cumulative packet size per connected master and slave (bytes)
system.tol2bus.pkt_size::total                4498624                       # Cumulative packet size per connected master and slave (bytes)
system.tol2bus.snoops                           67205                       # Total snoops (count)
system.tol2bus.snoopTraffic                   2169216                       # Total snoop traffic (bytes)
system.tol2bus.snoop_fanout::samples           129206                       # Request fanout histogram
system.tol2bus.snoop_fanout::mean            0.281628                       # Request fanout histogram
system.tol2bus.snoop_fanout::stdev           0.449795                       # Request fanout histogram
system.tol2bus.snoop_fanout::underflows             0      0.00%      0.00% # Request fanout histogram
system.tol2bus.snoop_fanout::0                  92818     71.84%     71.84% # Request fanout histogram
system.tol2bus.snoop_fanout::1                  36388     28.16%    100.00% # Request fanout histogram
system.tol2bus.snoop_fanout::2                      0      0.00%    100.00% # Request fanout histogram
system.tol2bus.snoop_fanout::3                      0      0.00%    100.00% # Request fanout histogram
system.tol2bus.snoop_fanout::4                      0      0.00%    100.00% # Request fanout histogram
system.tol2bus.snoop_fanout::overflows              0      0.00%    100.00% # Request fanout histogram
system.tol2bus.snoop_fanout::min_value              0                       # Request fanout histogram
system.tol2bus.snoop_fanout::max_value              1                       # Request fanout histogram
system.tol2bus.snoop_fanout::total             129206                       # Request fanout histogram
system.tol2bus.reqLayer0.occupancy           82073000                       # Layer occupancy (ticks)
system.tol2bus.reqLayer0.utilization              0.2                       # Layer utilization (%)
system.tol2bus.respLayer0.occupancy            532500                       # Layer occupancy (ticks)
system.tol2bus.respLayer0.utilization             0.0                       # Layer utilization (%)
system.tol2bus.respLayer1.occupancy          67571000                       # Layer occupancy (ticks)
system.tol2bus.respLayer1.utilization             0.2                       # Layer utilization (%)
system.tol3bus.snoop_filter.tot_requests        72109                       # Total number of requests made to the snoop filter.
system.tol3bus.snoop_filter.hit_single_requests        37147                       # Number of requests hitting in the snoop filter with a single holder of the requested data.
system.tol3bus.snoop_filter.hit_multi_requests            0                       # Number of requests hitting in the snoop filter with multiple (>1) holders of the requested data.
system.tol3bus.snoop_filter.tot_snoops            401                       # Total number of snoops made to the snoop filter.
system.tol3bus.snoop_filter.hit_single_snoops          401                       # Number of snoops hitting in the snoop filter with a single holder of the requested data.
system.tol3bus.snoop_filter.hit_multi_snoops            0                       # Number of snoops hitting in the snoop filter with multiple (>1) holders of the requested data.
system.tol3bus.pwrStateResidencyTicks::UNDEFINED  44304580500                       # Cumulative time (in ticks) in various power states
system.tol3bus.trans_dist::ReadResp             28501                       # Transaction distribution
system.tol3bus.trans_dist::WritebackDirty        34794                       # Transaction distribution
system.tol3bus.trans_dist::CleanEvict            3087                       # Transaction distribution
system.tol3bus.trans_dist::UpgradeReq             642                       # Transaction distribution
system.tol3bus.trans_dist::ReadExReq             6458                       # Transaction distribution
system.tol3bus.trans_dist::ReadExResp            6458                       # Transaction distribution
system.tol3bus.trans_dist::ReadSharedReq        28501                       # Transaction distribution
system.tol3bus.pkt_count_system.l2.mem_side::system.l3.cpu_side       107065                       # Packet count per connected master and slave (bytes)
system.tol3bus.pkt_size_system.l2.mem_side::system.l3.cpu_side      4406464                       # Cumulative packet size per connected master and slave (bytes)
system.tol3bus.snoops                            1376                       # Total snoops (count)
system.tol3bus.snoopTraffic                     57728                       # Total snoop traffic (bytes)
system.tol3bus.snoop_fanout::samples            36980                       # Request fanout histogram
system.tol3bus.snoop_fanout::mean            0.010844                       # Request fanout histogram
system.tol3bus.snoop_fanout::stdev           0.103568                       # Request fanout histogram
system.tol3bus.snoop_fanout::underflows             0      0.00%      0.00% # Request fanout histogram
system.tol3bus.snoop_fanout::0                  36579     98.92%     98.92% # Request fanout histogram
system.tol3bus.snoop_fanout::1                    401      1.08%    100.00% # Request fanout histogram
system.tol3bus.snoop_fanout::overflows              0      0.00%    100.00% # Request fanout histogram
system.tol3bus.snoop_fanout::min_value              0                       # Request fanout histogram
system.tol3bus.snoop_fanout::max_value              1                       # Request fanout histogram
system.tol3bus.snoop_fanout::total              36980                       # Request fanout histogram
system.tol3bus.reqLayer0.occupancy          103839997                       # Layer occupancy (ticks)
system.tol3bus.reqLayer0.utilization              0.2                       # Layer utilization (%)
system.tol3bus.respLayer0.occupancy          87397503                       # Layer occupancy (ticks)
system.tol3bus.respLayer0.utilization             0.2                       # Layer utilization (%)

---------- End Simulation Statistics   ----------
