
---------- Begin Simulation Statistics ----------
sim_seconds                                  0.043885                       # Number of seconds simulated
sim_ticks                                 43885206500                       # Number of ticks simulated
final_tick                                43885206500                       # Number of ticks from beginning of simulation (restored from checkpoints and never reset)
sim_freq                                 1000000000000                       # Frequency of simulated ticks
host_inst_rate                                1496643                       # Simulator instruction rate (inst/s)
host_op_rate                                  2539764                       # Simulator op (including micro ops) rate (op/s)
host_tick_rate                             2340369409                       # Simulator tick rate (ticks/s)
host_mem_usage                                 659520                       # Number of bytes of host memory used
host_seconds                                    18.75                       # Real time elapsed on the host
sim_insts                                    28064131                       # Number of instructions simulated
sim_ops                                      47624120                       # Number of ops (including micro ops) simulated
system.voltage_domain.voltage                       1                       # Voltage in Volts
system.clk_domain.clock                          1000                       # Clock period in ticks
system.mem_ctrls.pwrStateResidencyTicks::UNDEFINED  43885206500                       # Cumulative time (in ticks) in various power states
system.mem_ctrls.bytes_read::cpu.inst           22720                       # Number of bytes read from this memory
system.mem_ctrls.bytes_read::cpu.data          413760                       # Number of bytes read from this memory
system.mem_ctrls.bytes_read::total             436480                       # Number of bytes read from this memory
system.mem_ctrls.bytes_inst_read::cpu.inst        22720                       # Number of instructions bytes read from this memory
system.mem_ctrls.bytes_inst_read::total         22720                       # Number of instructions bytes read from this memory
system.mem_ctrls.num_reads::cpu.inst              355                       # Number of read requests responded to by this memory
system.mem_ctrls.num_reads::cpu.data             6465                       # Number of read requests responded to by this memory
system.mem_ctrls.num_reads::total                6820                       # Number of read requests responded to by this memory
system.mem_ctrls.bw_read::cpu.inst             517714                       # Total read bandwidth from this memory (bytes/s)
system.mem_ctrls.bw_read::cpu.data            9428234                       # Total read bandwidth from this memory (bytes/s)
system.mem_ctrls.bw_read::total               9945948                       # Total read bandwidth from this memory (bytes/s)
system.mem_ctrls.bw_inst_read::cpu.inst        517714                       # Instruction read bandwidth from this memory (bytes/s)
system.mem_ctrls.bw_inst_read::total           517714                       # Instruction read bandwidth from this memory (bytes/s)
system.mem_ctrls.bw_total::cpu.inst            517714                       # Total bandwidth to/from this memory (bytes/s)
system.mem_ctrls.bw_total::cpu.data           9428234                       # Total bandwidth to/from this memory (bytes/s)
system.mem_ctrls.bw_total::total              9945948                       # Total bandwidth to/from this memory (bytes/s)
system.pwrStateResidencyTicks::UNDEFINED  43885206500                       # Cumulative time (in ticks) in various power states
system.cpu_voltage_domain.voltage                   1                       # Voltage in Volts
system.cpu_clk_domain.clock                       500                       # Clock period in ticks
system.cpu.dtb.walker.pwrStateResidencyTicks::UNDEFINED  43885206500                       # Cumulative time (in ticks) in various power states
system.cpu.dtb.rdAccesses                     4488672                       # TLB accesses on read requests
system.cpu.dtb.wrAccesses                     2193943                       # TLB accesses on write requests
system.cpu.dtb.rdMisses                           166                       # TLB misses on read requests
system.cpu.dtb.wrMisses                           107                       # TLB misses on write requests
system.cpu.apic_clk_domain.clock                 8000                       # Clock period in ticks
system.cpu.interrupts.pwrStateResidencyTicks::UNDEFINED  43885206500                       # Cumulative time (in ticks) in various power states
system.cpu.itb.walker.pwrStateResidencyTicks::UNDEFINED  43885206500                       # Cumulative time (in ticks) in various power states
system.cpu.itb.rdAccesses                           0                       # TLB accesses on read requests
system.cpu.itb.wrAccesses                    35206216                       # TLB accesses on write requests
system.cpu.itb.rdMisses                             0                       # TLB misses on read requests
system.cpu.itb.wrMisses                            35                       # TLB misses on write requests
system.cpu.workload.numSyscalls                     9                       # Number of system calls
system.cpu.pwrStateResidencyTicks::ON     43885206500                       # Cumulative time (in ticks) in various power states
system.cpu.numCycles                         87770413                       # number of cpu cycles simulated
system.cpu.numWorkItemsStarted                      0                       # number of work items this cpu started
system.cpu.numWorkItemsCompleted                    0                       # number of work items this cpu completed
system.cpu.committedInsts                    28064131                       # Number of instructions committed
system.cpu.committedOps                      47624120                       # Number of ops (including micro ops) committed
system.cpu.num_int_alu_accesses              47536435                       # Number of integer alu accesses
system.cpu.num_fp_alu_accesses                   1951                       # Number of float alu accesses
system.cpu.num_vec_alu_accesses                     0                       # Number of vector alu accesses
system.cpu.num_func_calls                      772572                       # number of times a function call or return occured
system.cpu.num_conditional_control_insts      4056704                       # number of instructions that are conditional controls
system.cpu.num_int_insts                     47536435                       # number of integer instructions
system.cpu.num_fp_insts                          1951                       # number of float instructions
system.cpu.num_vec_insts                            0                       # number of vector instructions
system.cpu.num_int_register_reads            90177521                       # number of times the integer registers were read
system.cpu.num_int_register_writes           39127118                       # number of times the integer registers were written
system.cpu.num_fp_register_reads                 3771                       # number of times the floating registers were read
system.cpu.num_fp_register_writes                1484                       # number of times the floating registers were written
system.cpu.num_vec_register_reads                   0                       # number of times the vector registers were read
system.cpu.num_vec_register_writes                  0                       # number of times the vector registers were written
system.cpu.num_cc_register_reads             22557826                       # number of times the CC registers were read
system.cpu.num_cc_register_writes            16666257                       # number of times the CC registers were written
system.cpu.num_mem_refs                       6682610                       # number of memory refs
system.cpu.num_load_insts                     4488668                       # Number of load instructions
system.cpu.num_store_insts                    2193942                       # Number of store instructions
system.cpu.num_idle_cycles                          0                       # Number of idle cycles
system.cpu.num_busy_cycles                   87770413                       # Number of busy cycles
system.cpu.not_idle_fraction                        1                       # Percentage of non-idle cycles
system.cpu.idle_fraction                            0                       # Percentage of idle cycles
system.cpu.Branches                           6415420                       # Number of branches fetched
system.cpu.op_class::No_OpClass                 86264      0.18%      0.18% # Class of executed instruction
system.cpu.op_class::IntAlu                  40654268     85.36%     85.55% # Class of executed instruction
system.cpu.op_class::IntMult                   200004      0.42%     85.97% # Class of executed instruction
system.cpu.op_class::IntDiv                        14      0.00%     85.97% # Class of executed instruction
system.cpu.op_class::FloatAdd                      10      0.00%     85.97% # Class of executed instruction
system.cpu.op_class::FloatCmp                       0      0.00%     85.97% # Class of executed instruction
system.cpu.op_class::FloatCvt                       0      0.00%     85.97% # Class of executed instruction
system.cpu.op_class::FloatMult                      0      0.00%     85.97% # Class of executed instruction
system.cpu.op_class::FloatMultAcc                   0      0.00%     85.97% # Class of executed instruction
system.cpu.op_class::FloatDiv                       0      0.00%     85.97% # Class of executed instruction
system.cpu.op_class::FloatMisc                      0      0.00%     85.97% # Class of executed instruction
system.cpu.op_class::FloatSqrt                      0      0.00%     85.97% # Class of executed instruction
system.cpu.op_class::SimdAdd                      374      0.00%     85.97% # Class of executed instruction
system.cpu.op_class::SimdAddAcc                     0      0.00%     85.97% # Class of executed instruction
system.cpu.op_class::SimdAlu                       68      0.00%     85.97% # Class of executed instruction
system.cpu.op_class::SimdCmp                        0      0.00%     85.97% # Class of executed instruction
system.cpu.op_class::SimdCvt                      108      0.00%     85.97% # Class of executed instruction
system.cpu.op_class::SimdMisc                     214      0.00%     85.97% # Class of executed instruction
system.cpu.op_class::SimdMult                       0      0.00%     85.97% # Class of executed instruction
system.cpu.op_class::SimdMultAcc                    0      0.00%     85.97% # Class of executed instruction
system.cpu.op_class::SimdShift                    186      0.00%     85.97% # Class of executed instruction
system.cpu.op_class::SimdShiftAcc                   0      0.00%     85.97% # Class of executed instruction
system.cpu.op_class::SimdSqrt                       0      0.00%     85.97% # Class of executed instruction
system.cpu.op_class::SimdFloatAdd                   0      0.00%     85.97% # Class of executed instruction
system.cpu.op_class::SimdFloatAlu                   0      0.00%     85.97% # Class of executed instruction
system.cpu.op_class::SimdFloatCmp                   0      0.00%     85.97% # Class of executed instruction
system.cpu.op_class::SimdFloatCvt                   0      0.00%     85.97% # Class of executed instruction
system.cpu.op_class::SimdFloatDiv                   0      0.00%     85.97% # Class of executed instruction
system.cpu.op_class::SimdFloatMisc                  0      0.00%     85.97% # Class of executed instruction
system.cpu.op_class::SimdFloatMult                  0      0.00%     85.97% # Class of executed instruction
system.cpu.op_class::SimdFloatMultAcc               0      0.00%     85.97% # Class of executed instruction
system.cpu.op_class::SimdFloatSqrt                  0      0.00%     85.97% # Class of executed instruction
system.cpu.op_class::MemRead                  4488608      9.43%     95.39% # Class of executed instruction
system.cpu.op_class::MemWrite                 2193523      4.61%    100.00% # Class of executed instruction
system.cpu.op_class::FloatMemRead                  60      0.00%    100.00% # Class of executed instruction
system.cpu.op_class::FloatMemWrite                419      0.00%    100.00% # Class of executed instruction
system.cpu.op_class::IprAccess                      0      0.00%    100.00% # Class of executed instruction
system.cpu.op_class::InstPrefetch                   0      0.00%    100.00% # Class of executed instruction
system.cpu.op_class::total                   47624120                       # Class of executed instruction
system.cpu.dcache.tags.pwrStateResidencyTicks::UNDEFINED  43885206500                       # Cumulative time (in ticks) in various power states
system.cpu.dcache.tags.tagsinuse          1005.034973                       # Cycle average of tags in use
system.cpu.dcache.tags.total_refs             6682615                       # Total number of references to valid blocks.
system.cpu.dcache.tags.sampled_refs             36748                       # Sample count of references to valid blocks.
system.cpu.dcache.tags.avg_refs            181.849761                       # Average number of references to valid blocks.
system.cpu.dcache.tags.warmup_cycle            765500                       # Cycle when the warmup percentage was hit.
system.cpu.dcache.tags.occ_blocks::cpu.data  1005.034973                       # Average occupied blocks per requestor
system.cpu.dcache.tags.occ_percent::cpu.data     0.981479                       # Average percentage of cache occupancy
system.cpu.dcache.tags.occ_percent::total     0.981479                       # Average percentage of cache occupancy
system.cpu.dcache.tags.occ_task_id_blocks::1024         1024                       # Occupied blocks per task id
system.cpu.dcache.tags.age_task_id_blocks_1024::0           26                       # Occupied blocks per task id
system.cpu.dcache.tags.age_task_id_blocks_1024::2          166                       # Occupied blocks per task id
system.cpu.dcache.tags.age_task_id_blocks_1024::3          832                       # Occupied blocks per task id
system.cpu.dcache.tags.occ_task_id_percent::1024            1                       # Percentage of cache occupancy per task id
system.cpu.dcache.tags.tag_accesses          13401978                       # Number of tag accesses
system.cpu.dcache.tags.data_accesses         13401978                       # Number of data accesses
system.cpu.dcache.pwrStateResidencyTicks::UNDEFINED  43885206500                       # Cumulative time (in ticks) in various power states
system.cpu.dcache.ReadReq_hits::cpu.data      4458447                       # number of ReadReq hits
system.cpu.dcache.ReadReq_hits::total         4458447                       # number of ReadReq hits
system.cpu.dcache.WriteReq_hits::cpu.data      2161897                       # number of WriteReq hits
system.cpu.dcache.WriteReq_hits::total        2161897                       # number of WriteReq hits
system.cpu.dcache.demand_hits::cpu.data       6620344                       # number of demand (read+write) hits
system.cpu.dcache.demand_hits::total          6620344                       # number of demand (read+write) hits
system.cpu.dcache.overall_hits::cpu.data      6620344                       # number of overall hits
system.cpu.dcache.overall_hits::total         6620344                       # number of overall hits
system.cpu.dcache.ReadReq_misses::cpu.data        30225                       # number of ReadReq misses
system.cpu.dcache.ReadReq_misses::total         30225                       # number of ReadReq misses
system.cpu.dcache.WriteReq_misses::cpu.data        32046                       # number of WriteReq misses
system.cpu.dcache.WriteReq_misses::total        32046                       # number of WriteReq misses
system.cpu.dcache.demand_misses::cpu.data        62271                       # number of demand (read+write) misses
system.cpu.dcache.demand_misses::total          62271                       # number of demand (read+write) misses
system.cpu.dcache.overall_misses::cpu.data        62271                       # number of overall misses
system.cpu.dcache.overall_misses::total         62271                       # number of overall misses
system.cpu.dcache.ReadReq_miss_latency::cpu.data   1253798000                       # number of ReadReq miss cycles
system.cpu.dcache.ReadReq_miss_latency::total   1253798000                       # number of ReadReq miss cycles
system.cpu.dcache.WriteReq_miss_latency::cpu.data    751731000                       # number of WriteReq miss cycles
system.cpu.dcache.WriteReq_miss_latency::total    751731000                       # number of WriteReq miss cycles
system.cpu.dcache.demand_miss_latency::cpu.data   2005529000                       # number of demand (read+write) miss cycles
system.cpu.dcache.demand_miss_latency::total   2005529000                       # number of demand (read+write) miss cycles
system.cpu.dcache.overall_miss_latency::cpu.data   2005529000                       # number of overall miss cycles
system.cpu.dcache.overall_miss_latency::total   2005529000                       # number of overall miss cycles
system.cpu.dcache.ReadReq_accesses::cpu.data      4488672                       # number of ReadReq accesses(hits+misses)
system.cpu.dcache.ReadReq_accesses::total      4488672                       # number of ReadReq accesses(hits+misses)
system.cpu.dcache.WriteReq_accesses::cpu.data      2193943                       # number of WriteReq accesses(hits+misses)
system.cpu.dcache.WriteReq_accesses::total      2193943                       # number of WriteReq accesses(hits+misses)
system.cpu.dcache.demand_accesses::cpu.data      6682615                       # number of demand (read+write) accesses
system.cpu.dcache.demand_accesses::total      6682615                       # number of demand (read+write) accesses
system.cpu.dcache.overall_accesses::cpu.data      6682615                       # number of overall (read+write) accesses
system.cpu.dcache.overall_accesses::total      6682615                       # number of overall (read+write) accesses
system.cpu.dcache.ReadReq_miss_rate::cpu.data     0.006734                       # miss rate for ReadReq accesses
system.cpu.dcache.ReadReq_miss_rate::total     0.006734                       # miss rate for ReadReq accesses
system.cpu.dcache.WriteReq_miss_rate::cpu.data     0.014607                       # miss rate for WriteReq accesses
system.cpu.dcache.WriteReq_miss_rate::total     0.014607                       # miss rate for WriteReq accesses
system.cpu.dcache.demand_miss_rate::cpu.data     0.009318                       # miss rate for demand accesses
system.cpu.dcache.demand_miss_rate::total     0.009318                       # miss rate for demand accesses
system.cpu.dcache.overall_miss_rate::cpu.data     0.009318                       # miss rate for overall accesses
system.cpu.dcache.overall_miss_rate::total     0.009318                       # miss rate for overall accesses
system.cpu.dcache.ReadReq_avg_miss_latency::cpu.data 41482.150538                       # average ReadReq miss latency
system.cpu.dcache.ReadReq_avg_miss_latency::total 41482.150538                       # average ReadReq miss latency
system.cpu.dcache.WriteReq_avg_miss_latency::cpu.data 23457.873057                       # average WriteReq miss latency
system.cpu.dcache.WriteReq_avg_miss_latency::total 23457.873057                       # average WriteReq miss latency
system.cpu.dcache.demand_avg_miss_latency::cpu.data 32206.468501                       # average overall miss latency
system.cpu.dcache.demand_avg_miss_latency::total 32206.468501                       # average overall miss latency
system.cpu.dcache.overall_avg_miss_latency::cpu.data 32206.468501                       # average overall miss latency
system.cpu.dcache.overall_avg_miss_latency::total 32206.468501                       # average overall miss latency
system.cpu.dcache.blocked_cycles::no_mshrs            0                       # number of cycles access was blocked
system.cpu.dcache.blocked_cycles::no_targets            0                       # number of cycles access was blocked
system.cpu.dcache.blocked::no_mshrs                 0                       # number of cycles access was blocked
system.cpu.dcache.blocked::no_targets               0                       # number of cycles access was blocked
system.cpu.dcache.avg_blocked_cycles::no_mshrs          nan                       # average number of cycles each access was blocked
system.cpu.dcache.avg_blocked_cycles::no_targets          nan                       # average number of cycles each access was blocked
system.cpu.dcache.writebacks::writebacks        33140                       # number of writebacks
system.cpu.dcache.writebacks::total             33140                       # number of writebacks
system.cpu.dcache.ReadReq_mshr_misses::cpu.data        30225                       # number of ReadReq MSHR misses
system.cpu.dcache.ReadReq_mshr_misses::total        30225                       # number of ReadReq MSHR misses
system.cpu.dcache.WriteReq_mshr_misses::cpu.data        32046                       # number of WriteReq MSHR misses
system.cpu.dcache.WriteReq_mshr_misses::total        32046                       # number of WriteReq MSHR misses
system.cpu.dcache.demand_mshr_misses::cpu.data        62271                       # number of demand (read+write) MSHR misses
system.cpu.dcache.demand_mshr_misses::total        62271                       # number of demand (read+write) MSHR misses
system.cpu.dcache.overall_mshr_misses::cpu.data        62271                       # number of overall MSHR misses
system.cpu.dcache.overall_mshr_misses::total        62271                       # number of overall MSHR misses
system.cpu.dcache.ReadReq_mshr_miss_latency::cpu.data   1223573000                       # number of ReadReq MSHR miss cycles
system.cpu.dcache.ReadReq_mshr_miss_latency::total   1223573000                       # number of ReadReq MSHR miss cycles
system.cpu.dcache.WriteReq_mshr_miss_latency::cpu.data    719685000                       # number of WriteReq MSHR miss cycles
system.cpu.dcache.WriteReq_mshr_miss_latency::total    719685000                       # number of WriteReq MSHR miss cycles
system.cpu.dcache.demand_mshr_miss_latency::cpu.data   1943258000                       # number of demand (read+write) MSHR miss cycles
system.cpu.dcache.demand_mshr_miss_latency::total   1943258000                       # number of demand (read+write) MSHR miss cycles
system.cpu.dcache.overall_mshr_miss_latency::cpu.data   1943258000                       # number of overall MSHR miss cycles
system.cpu.dcache.overall_mshr_miss_latency::total   1943258000                       # number of overall MSHR miss cycles
system.cpu.dcache.ReadReq_mshr_miss_rate::cpu.data     0.006734                       # mshr miss rate for ReadReq accesses
system.cpu.dcache.ReadReq_mshr_miss_rate::total     0.006734                       # mshr miss rate for ReadReq accesses
system.cpu.dcache.WriteReq_mshr_miss_rate::cpu.data     0.014607                       # mshr miss rate for WriteReq accesses
system.cpu.dcache.WriteReq_mshr_miss_rate::total     0.014607                       # mshr miss rate for WriteReq accesses
system.cpu.dcache.demand_mshr_miss_rate::cpu.data     0.009318                       # mshr miss rate for demand accesses
system.cpu.dcache.demand_mshr_miss_rate::total     0.009318                       # mshr miss rate for demand accesses
system.cpu.dcache.overall_mshr_miss_rate::cpu.data     0.009318                       # mshr miss rate for overall accesses
system.cpu.dcache.overall_mshr_miss_rate::total     0.009318                       # mshr miss rate for overall accesses
system.cpu.dcache.ReadReq_avg_mshr_miss_latency::cpu.data 40482.150538                       # average ReadReq mshr miss latency
system.cpu.dcache.ReadReq_avg_mshr_miss_latency::total 40482.150538                       # average ReadReq mshr miss latency
system.cpu.dcache.WriteReq_avg_mshr_miss_latency::cpu.data 22457.873057                       # average WriteReq mshr miss latency
system.cpu.dcache.WriteReq_avg_mshr_miss_latency::total 22457.873057                       # average WriteReq mshr miss latency
system.cpu.dcache.demand_avg_mshr_miss_latency::cpu.data 31206.468501                       # average overall mshr miss latency
system.cpu.dcache.demand_avg_mshr_miss_latency::total 31206.468501                       # average overall mshr miss latency
system.cpu.dcache.overall_avg_mshr_miss_latency::cpu.data 31206.468501                       # average overall mshr miss latency
system.cpu.dcache.overall_avg_mshr_miss_latency::total 31206.468501                       # average overall mshr miss latency
system.cpu.dcache.replacements                  35724                       # number of replacements
system.cpu.dtb_walker_cache.tags.pwrStateResidencyTicks::UNDEFINED  43885206500                       # Cumulative time (in ticks) in various power states
system.cpu.dtb_walker_cache.tags.tagsinuse            0                       # Cycle average of tags in use
system.cpu.dtb_walker_cache.tags.total_refs            0                       # Total number of references to valid blocks.
system.cpu.dtb_walker_cache.tags.sampled_refs            0                       # Sample count of references to valid blocks.
system.cpu.dtb_walker_cache.tags.avg_refs          nan                       # Average number of references to valid blocks.
system.cpu.dtb_walker_cache.tags.warmup_cycle            0                       # Cycle when the warmup percentage was hit.
system.cpu.dtb_walker_cache.tags.tag_accesses            0                       # Number of tag accesses
system.cpu.dtb_walker_cache.tags.data_accesses            0                       # Number of data accesses
system.cpu.dtb_walker_cache.pwrStateResidencyTicks::UNDEFINED  43885206500                       # Cumulative time (in ticks) in various power states
system.cpu.dtb_walker_cache.blocked_cycles::no_mshrs            0                       # number of cycles access was blocked
system.cpu.dtb_walker_cache.blocked_cycles::no_targets            0                       # number of cycles access was blocked
system.cpu.dtb_walker_cache.blocked::no_mshrs            0                       # number of cycles access was blocked
system.cpu.dtb_walker_cache.blocked::no_targets            0                       # number of cycles access was blocked
system.cpu.dtb_walker_cache.avg_blocked_cycles::no_mshrs          nan                       # average number of cycles each access was blocked
system.cpu.dtb_walker_cache.avg_blocked_cycles::no_targets          nan                       # average number of cycles each access was blocked
system.cpu.dtb_walker_cache.replacements            0                       # number of replacements
system.cpu.icache.tags.pwrStateResidencyTicks::UNDEFINED  43885206500                       # Cumulative time (in ticks) in various power states
system.cpu.icache.tags.tagsinuse           281.155912                       # Cycle average of tags in use
system.cpu.icache.tags.total_refs            35206216                       # Total number of references to valid blocks.
system.cpu.icache.tags.sampled_refs               355                       # Sample count of references to valid blocks.
system.cpu.icache.tags.avg_refs          99172.439437                       # Average number of references to valid blocks.
system.cpu.icache.tags.warmup_cycle            445500                       # Cycle when the warmup percentage was hit.
system.cpu.icache.tags.occ_blocks::cpu.inst   281.155912                       # Average occupied blocks per requestor
system.cpu.icache.tags.occ_percent::cpu.inst     0.549133                       # Average percentage of cache occupancy
system.cpu.icache.tags.occ_percent::total     0.549133                       # Average percentage of cache occupancy
system.cpu.icache.tags.occ_task_id_blocks::1024          310                       # Occupied blocks per task id
system.cpu.icache.tags.age_task_id_blocks_1024::0           37                       # Occupied blocks per task id
system.cpu.icache.tags.age_task_id_blocks_1024::4          273                       # Occupied blocks per task id
system.cpu.icache.tags.occ_task_id_percent::1024     0.605469                       # Percentage of cache occupancy per task id
system.cpu.icache.tags.tag_accesses          70412787                       # Number of tag accesses
system.cpu.icache.tags.data_accesses         70412787                       # Number of data accesses
system.cpu.icache.pwrStateResidencyTicks::UNDEFINED  43885206500                       # Cumulative time (in ticks) in various power states
system.cpu.icache.ReadReq_hits::cpu.inst     35205861                       # number of ReadReq hits
system.cpu.icache.ReadReq_hits::total        35205861                       # number of ReadReq hits
system.cpu.icache.demand_hits::cpu.inst      35205861                       # number of demand (read+write) hits
system.cpu.icache.demand_hits::total         35205861                       # number of demand (read+write) hits
system.cpu.icache.overall_hits::cpu.inst     35205861                       # number of overall hits
system.cpu.icache.overall_hits::total        35205861                       # number of overall hits
system.cpu.icache.ReadReq_misses::cpu.inst          355                       # number of ReadReq misses
system.cpu.icache.ReadReq_misses::total           355                       # number of ReadReq misses
system.cpu.icache.demand_misses::cpu.inst          355                       # number of demand (read+write) misses
system.cpu.icache.demand_misses::total            355                       # number of demand (read+write) misses
system.cpu.icache.overall_misses::cpu.inst          355                       # number of overall misses
system.cpu.icache.overall_misses::total           355                       # number of overall misses
system.cpu.icache.ReadReq_miss_latency::cpu.inst     53476500                       # number of ReadReq miss cycles
system.cpu.icache.ReadReq_miss_latency::total     53476500                       # number of ReadReq miss cycles
system.cpu.icache.demand_miss_latency::cpu.inst     53476500                       # number of demand (read+write) miss cycles
system.cpu.icache.demand_miss_latency::total     53476500                       # number of demand (read+write) miss cycles
system.cpu.icache.overall_miss_latency::cpu.inst     53476500                       # number of overall miss cycles
system.cpu.icache.overall_miss_latency::total     53476500                       # number of overall miss cycles
system.cpu.icache.ReadReq_accesses::cpu.inst     35206216                       # number of ReadReq accesses(hits+misses)
system.cpu.icache.ReadReq_accesses::total     35206216                       # number of ReadReq accesses(hits+misses)
system.cpu.icache.demand_accesses::cpu.inst     35206216                       # number of demand (read+write) accesses
system.cpu.icache.demand_accesses::total     35206216                       # number of demand (read+write) accesses
system.cpu.icache.overall_accesses::cpu.inst     35206216                       # number of overall (read+write) accesses
system.cpu.icache.overall_accesses::total     35206216                       # number of overall (read+write) accesses
system.cpu.icache.ReadReq_miss_rate::cpu.inst     0.000010                       # miss rate for ReadReq accesses
system.cpu.icache.ReadReq_miss_rate::total     0.000010                       # miss rate for ReadReq accesses
system.cpu.icache.demand_miss_rate::cpu.inst     0.000010                       # miss rate for demand accesses
system.cpu.icache.demand_miss_rate::total     0.000010                       # miss rate for demand accesses
system.cpu.icache.overall_miss_rate::cpu.inst     0.000010                       # miss rate for overall accesses
system.cpu.icache.overall_miss_rate::total     0.000010                       # miss rate for overall accesses
system.cpu.icache.ReadReq_avg_miss_latency::cpu.inst 150638.028169                       # average ReadReq miss latency
system.cpu.icache.ReadReq_avg_miss_latency::total 150638.028169                       # average ReadReq miss latency
system.cpu.icache.demand_avg_miss_latency::cpu.inst 150638.028169                       # average overall miss latency
system.cpu.icache.demand_avg_miss_latency::total 150638.028169                       # average overall miss latency
system.cpu.icache.overall_avg_miss_latency::cpu.inst 150638.028169                       # average overall miss latency
system.cpu.icache.overall_avg_miss_latency::total 150638.028169                       # average overall miss latency
system.cpu.icache.blocked_cycles::no_mshrs            0                       # number of cycles access was blocked
system.cpu.icache.blocked_cycles::no_targets            0                       # number of cycles access was blocked
system.cpu.icache.blocked::no_mshrs                 0                       # number of cycles access was blocked
system.cpu.icache.blocked::no_targets               0                       # number of cycles access was blocked
system.cpu.icache.avg_blocked_cycles::no_mshrs          nan                       # average number of cycles each access was blocked
system.cpu.icache.avg_blocked_cycles::no_targets          nan                       # average number of cycles each access was blocked
system.cpu.icache.writebacks::writebacks           45                       # number of writebacks
system.cpu.icache.writebacks::total                45                       # number of writebacks
system.cpu.icache.ReadReq_mshr_misses::cpu.inst          355                       # number of ReadReq MSHR misses
system.cpu.icache.ReadReq_mshr_misses::total          355                       # number of ReadReq MSHR misses
system.cpu.icache.demand_mshr_misses::cpu.inst          355                       # number of demand (read+write) MSHR misses
system.cpu.icache.demand_mshr_misses::total          355                       # number of demand (read+write) MSHR misses
system.cpu.icache.overall_mshr_misses::cpu.inst          355                       # number of overall MSHR misses
system.cpu.icache.overall_mshr_misses::total          355                       # number of overall MSHR misses
system.cpu.icache.ReadReq_mshr_miss_latency::cpu.inst     53121500                       # number of ReadReq MSHR miss cycles
system.cpu.icache.ReadReq_mshr_miss_latency::total     53121500                       # number of ReadReq MSHR miss cycles
system.cpu.icache.demand_mshr_miss_latency::cpu.inst     53121500                       # number of demand (read+write) MSHR miss cycles
system.cpu.icache.demand_mshr_miss_latency::total     53121500                       # number of demand (read+write) MSHR miss cycles
system.cpu.icache.overall_mshr_miss_latency::cpu.inst     53121500                       # number of overall MSHR miss cycles
system.cpu.icache.overall_mshr_miss_latency::total     53121500                       # number of overall MSHR miss cycles
system.cpu.icache.ReadReq_mshr_miss_rate::cpu.inst     0.000010                       # mshr miss rate for ReadReq accesses
system.cpu.icache.ReadReq_mshr_miss_rate::total     0.000010                       # mshr miss rate for ReadReq accesses
system.cpu.icache.demand_mshr_miss_rate::cpu.inst     0.000010                       # mshr miss rate for demand accesses
system.cpu.icache.demand_mshr_miss_rate::total     0.000010                       # mshr miss rate for demand accesses
system.cpu.icache.overall_mshr_miss_rate::cpu.inst     0.000010                       # mshr miss rate for overall accesses
system.cpu.icache.overall_mshr_miss_rate::total     0.000010                       # mshr miss rate for overall accesses
system.cpu.icache.ReadReq_avg_mshr_miss_latency::cpu.inst 149638.028169                       # average ReadReq mshr miss latency
system.cpu.icache.ReadReq_avg_mshr_miss_latency::total 149638.028169                       # average ReadReq mshr miss latency
system.cpu.icache.demand_avg_mshr_miss_latency::cpu.inst 149638.028169                       # average overall mshr miss latency
system.cpu.icache.demand_avg_mshr_miss_latency::total 149638.028169                       # average overall mshr miss latency
system.cpu.icache.overall_avg_mshr_miss_latency::cpu.inst 149638.028169                       # average overall mshr miss latency
system.cpu.icache.overall_avg_mshr_miss_latency::total 149638.028169                       # average overall mshr miss latency
system.cpu.icache.replacements                     45                       # number of replacements
system.cpu.itb_walker_cache.tags.pwrStateResidencyTicks::UNDEFINED  43885206500                       # Cumulative time (in ticks) in various power states
system.cpu.itb_walker_cache.tags.tagsinuse            0                       # Cycle average of tags in use
system.cpu.itb_walker_cache.tags.total_refs            0                       # Total number of references to valid blocks.
system.cpu.itb_walker_cache.tags.sampled_refs            0                       # Sample count of references to valid blocks.
system.cpu.itb_walker_cache.tags.avg_refs          nan                       # Average number of references to valid blocks.
system.cpu.itb_walker_cache.tags.warmup_cycle            0                       # Cycle when the warmup percentage was hit.
system.cpu.itb_walker_cache.tags.tag_accesses            0                       # Number of tag accesses
system.cpu.itb_walker_cache.tags.data_accesses            0                       # Number of data accesses
system.cpu.itb_walker_cache.pwrStateResidencyTicks::UNDEFINED  43885206500                       # Cumulative time (in ticks) in various power states
system.cpu.itb_walker_cache.blocked_cycles::no_mshrs            0                       # number of cycles access was blocked
system.cpu.itb_walker_cache.blocked_cycles::no_targets            0                       # number of cycles access was blocked
system.cpu.itb_walker_cache.blocked::no_mshrs            0                       # number of cycles access was blocked
system.cpu.itb_walker_cache.blocked::no_targets            0                       # number of cycles access was blocked
system.cpu.itb_walker_cache.avg_blocked_cycles::no_mshrs          nan                       # average number of cycles each access was blocked
system.cpu.itb_walker_cache.avg_blocked_cycles::no_targets          nan                       # average number of cycles each access was blocked
system.cpu.itb_walker_cache.replacements            0                       # number of replacements
system.l2.tags.pwrStateResidencyTicks::UNDEFINED  43885206500                       # Cumulative time (in ticks) in various power states
system.l2.tags.tagsinuse                   510.323199                       # Cycle average of tags in use
system.l2.tags.total_refs                       95138                       # Total number of references to valid blocks.
system.l2.tags.sampled_refs                     67317                       # Sample count of references to valid blocks.
system.l2.tags.avg_refs                      1.413283                       # Average number of references to valid blocks.
system.l2.tags.warmup_cycle                    435000                       # Cycle when the warmup percentage was hit.
system.l2.tags.occ_blocks::writebacks      274.910064                       # Average occupied blocks per requestor
system.l2.tags.occ_blocks::cpu.inst          2.725269                       # Average occupied blocks per requestor
system.l2.tags.occ_blocks::cpu.data        232.687867                       # Average occupied blocks per requestor
system.l2.tags.occ_percent::writebacks       0.536934                       # Average percentage of cache occupancy
system.l2.tags.occ_percent::cpu.inst         0.005323                       # Average percentage of cache occupancy
system.l2.tags.occ_percent::cpu.data         0.454468                       # Average percentage of cache occupancy
system.l2.tags.occ_percent::total            0.996725                       # Average percentage of cache occupancy
system.l2.tags.occ_task_id_blocks::1024           512                       # Occupied blocks per task id
system.l2.tags.age_task_id_blocks_1024::0           94                       # Occupied blocks per task id
system.l2.tags.age_task_id_blocks_1024::2          179                       # Occupied blocks per task id
system.l2.tags.age_task_id_blocks_1024::3          239                       # Occupied blocks per task id
system.l2.tags.occ_task_id_percent::1024            1                       # Percentage of cache occupancy per task id
system.l2.tags.tag_accesses                    264107                       # Number of tag accesses
system.l2.tags.data_accesses                   264107                       # Number of data accesses
system.l2.pwrStateResidencyTicks::UNDEFINED  43885206500                       # Cumulative time (in ticks) in various power states
system.l2.WritebackDirty_hits::writebacks        33140                       # number of WritebackDirty hits
system.l2.WritebackDirty_hits::total            33140                       # number of WritebackDirty hits
system.l2.WritebackClean_hits::writebacks           45                       # number of WritebackClean hits
system.l2.WritebackClean_hits::total               45                       # number of WritebackClean hits
system.l2.UpgradeReq_hits::cpu.data             24846                       # number of UpgradeReq hits
system.l2.UpgradeReq_hits::total                24846                       # number of UpgradeReq hits
system.l2.ReadExReq_hits::cpu.data                 65                       # number of ReadExReq hits
system.l2.ReadExReq_hits::total                    65                       # number of ReadExReq hits
system.l2.ReadSharedReq_hits::cpu.data           2075                       # number of ReadSharedReq hits
system.l2.ReadSharedReq_hits::total              2075                       # number of ReadSharedReq hits
system.l2.demand_hits::cpu.data                  2140                       # number of demand (read+write) hits
system.l2.demand_hits::total                     2140                       # number of demand (read+write) hits
system.l2.overall_hits::cpu.data                 2140                       # number of overall hits
system.l2.overall_hits::total                    2140                       # number of overall hits
system.l2.UpgradeReq_misses::cpu.data             677                       # number of UpgradeReq misses
system.l2.UpgradeReq_misses::total                677                       # number of UpgradeReq misses
system.l2.ReadExReq_misses::cpu.data             6458                       # number of ReadExReq misses
system.l2.ReadExReq_misses::total                6458                       # number of ReadExReq misses
system.l2.ReadCleanReq_misses::cpu.inst           355                       # number of ReadCleanReq misses
system.l2.ReadCleanReq_misses::total              355                       # number of ReadCleanReq misses
system.l2.ReadSharedReq_misses::cpu.data        28150                       # number of ReadSharedReq misses
system.l2.ReadSharedReq_misses::total           28150                       # number of ReadSharedReq misses
system.l2.demand_misses::cpu.inst                 355                       # number of demand (read+write) misses
system.l2.demand_misses::cpu.data               34608                       # number of demand (read+write) misses
system.l2.demand_misses::total                  34963                       # number of demand (read+write) misses
system.l2.overall_misses::cpu.inst                355                       # number of overall misses
system.l2.overall_misses::cpu.data              34608                       # number of overall misses
system.l2.overall_misses::total                 34963                       # number of overall misses
system.l2.ReadExReq_miss_latency::cpu.data    393462500                       # number of ReadExReq miss cycles
system.l2.ReadExReq_miss_latency::total     393462500                       # number of ReadExReq miss cycles
system.l2.ReadCleanReq_miss_latency::cpu.inst     52586000                       # number of ReadCleanReq miss cycles
system.l2.ReadCleanReq_miss_latency::total     52586000                       # number of ReadCleanReq miss cycles
system.l2.ReadSharedReq_miss_latency::cpu.data   1156448000                       # number of ReadSharedReq miss cycles
system.l2.ReadSharedReq_miss_latency::total   1156448000                       # number of ReadSharedReq miss cycles
system.l2.demand_miss_latency::cpu.inst      52586000                       # number of demand (read+write) miss cycles
system.l2.demand_miss_latency::cpu.data    1549910500                       # number of demand (read+write) miss cycles
system.l2.demand_miss_latency::total       1602496500                       # number of demand (read+write) miss cycles
system.l2.overall_miss_latency::cpu.inst     52586000                       # number of overall miss cycles
system.l2.overall_miss_latency::cpu.data   1549910500                       # number of overall miss cycles
system.l2.overall_miss_latency::total      1602496500                       # number of overall miss cycles
system.l2.WritebackDirty_accesses::writebacks        33140                       # number of WritebackDirty accesses(hits+misses)
system.l2.WritebackDirty_accesses::total        33140                       # number of WritebackDirty accesses(hits+misses)
system.l2.WritebackClean_accesses::writebacks           45                       # number of WritebackClean accesses(hits+misses)
system.l2.WritebackClean_accesses::total           45                       # number of WritebackClean accesses(hits+misses)
system.l2.UpgradeReq_accesses::cpu.data         25523                       # number of UpgradeReq accesses(hits+misses)
system.l2.UpgradeReq_accesses::total            25523                       # number of UpgradeReq accesses(hits+misses)
system.l2.ReadExReq_accesses::cpu.data           6523                       # number of ReadExReq accesses(hits+misses)
system.l2.ReadExReq_accesses::total              6523                       # number of ReadExReq accesses(hits+misses)
system.l2.ReadCleanReq_accesses::cpu.inst          355                       # number of ReadCleanReq accesses(hits+misses)
system.l2.ReadCleanReq_accesses::total            355                       # number of ReadCleanReq accesses(hits+misses)
system.l2.ReadSharedReq_accesses::cpu.data        30225                       # number of ReadSharedReq accesses(hits+misses)
system.l2.ReadSharedReq_accesses::total         30225                       # number of ReadSharedReq accesses(hits+misses)
system.l2.demand_accesses::cpu.inst               355                       # number of demand (read+write) accesses
system.l2.demand_accesses::cpu.data             36748                       # number of demand (read+write) accesses
system.l2.demand_accesses::total                37103                       # number of demand (read+write) accesses
system.l2.overall_accesses::cpu.inst              355                       # number of overall (read+write) accesses
system.l2.overall_accesses::cpu.data            36748                       # number of overall (read+write) accesses
system.l2.overall_accesses::total               37103                       # number of overall (read+write) accesses
system.l2.UpgradeReq_miss_rate::cpu.data     0.026525                       # miss rate for UpgradeReq accesses
system.l2.UpgradeReq_miss_rate::total        0.026525                       # miss rate for UpgradeReq accesses
system.l2.ReadExReq_miss_rate::cpu.data      0.990035                       # miss rate for ReadExReq accesses
system.l2.ReadExReq_miss_rate::total         0.990035                       # miss rate for ReadExReq accesses
system.l2.ReadCleanReq_miss_rate::cpu.inst            1                       # miss rate for ReadCleanReq accesses
system.l2.ReadCleanReq_miss_rate::total             1                       # miss rate for ReadCleanReq accesses
system.l2.ReadSharedReq_miss_rate::cpu.data     0.931348                       # miss rate for ReadSharedReq accesses
system.l2.ReadSharedReq_miss_rate::total     0.931348                       # miss rate for ReadSharedReq accesses
system.l2.demand_miss_rate::cpu.inst                1                       # miss rate for demand accesses
system.l2.demand_miss_rate::cpu.data         0.941766                       # miss rate for demand accesses
system.l2.demand_miss_rate::total            0.942323                       # miss rate for demand accesses
system.l2.overall_miss_rate::cpu.inst               1                       # miss rate for overall accesses
system.l2.overall_miss_rate::cpu.data        0.941766                       # miss rate for overall accesses
system.l2.overall_miss_rate::total           0.942323                       # miss rate for overall accesses
system.l2.ReadExReq_avg_miss_latency::cpu.data 60926.370393                       # average ReadExReq miss latency
system.l2.ReadExReq_avg_miss_latency::total 60926.370393                       # average ReadExReq miss latency
system.l2.ReadCleanReq_avg_miss_latency::cpu.inst 148129.577465                       # average ReadCleanReq miss latency
system.l2.ReadCleanReq_avg_miss_latency::total 148129.577465                       # average ReadCleanReq miss latency
system.l2.ReadSharedReq_avg_miss_latency::cpu.data 41081.634103                       # average ReadSharedReq miss latency
system.l2.ReadSharedReq_avg_miss_latency::total 41081.634103                       # average ReadSharedReq miss latency
system.l2.demand_avg_miss_latency::cpu.inst 148129.577465                       # average overall miss latency
system.l2.demand_avg_miss_latency::cpu.data 44784.746301                       # average overall miss latency
system.l2.demand_avg_miss_latency::total 45834.067443                       # average overall miss latency
system.l2.overall_avg_miss_latency::cpu.inst 148129.577465                       # average overall miss latency
system.l2.overall_avg_miss_latency::cpu.data 44784.746301                       # average overall miss latency
system.l2.overall_avg_miss_latency::total 45834.067443                       # average overall miss latency
system.l2.blocked_cycles::no_mshrs                  0                       # number of cycles access was blocked
system.l2.blocked_cycles::no_targets                0                       # number of cycles access was blocked
system.l2.blocked::no_mshrs                         0                       # number of cycles access was blocked
system.l2.blocked::no_targets                       0                       # number of cycles access was blocked
system.l2.avg_blocked_cycles::no_mshrs            nan                       # average number of cycles each access was blocked
system.l2.avg_blocked_cycles::no_targets          nan                       # average number of cycles each access was blocked
system.l2.writebacks::writebacks                33979                       # number of writebacks
system.l2.writebacks::total                     33979                       # number of writebacks
system.l2.CleanEvict_mshr_misses::writebacks         2580                       # number of CleanEvict MSHR misses
system.l2.CleanEvict_mshr_misses::total          2580                       # number of CleanEvict MSHR misses
system.l2.UpgradeReq_mshr_misses::cpu.data          677                       # number of UpgradeReq MSHR misses
system.l2.UpgradeReq_mshr_misses::total           677                       # number of UpgradeReq MSHR misses
system.l2.ReadExReq_mshr_misses::cpu.data         6458                       # number of ReadExReq MSHR misses
system.l2.ReadExReq_mshr_misses::total           6458                       # number of ReadExReq MSHR misses
system.l2.ReadCleanReq_mshr_misses::cpu.inst          355                       # number of ReadCleanReq MSHR misses
system.l2.ReadCleanReq_mshr_misses::total          355                       # number of ReadCleanReq MSHR misses
system.l2.ReadSharedReq_mshr_misses::cpu.data        28150                       # number of ReadSharedReq MSHR misses
system.l2.ReadSharedReq_mshr_misses::total        28150                       # number of ReadSharedReq MSHR misses
system.l2.demand_mshr_misses::cpu.inst            355                       # number of demand (read+write) MSHR misses
system.l2.demand_mshr_misses::cpu.data          34608                       # number of demand (read+write) MSHR misses
system.l2.demand_mshr_misses::total             34963                       # number of demand (read+write) MSHR misses
system.l2.overall_mshr_misses::cpu.inst           355                       # number of overall MSHR misses
system.l2.overall_mshr_misses::cpu.data         34608                       # number of overall MSHR misses
system.l2.overall_mshr_misses::total            34963                       # number of overall MSHR misses
system.l2.UpgradeReq_mshr_miss_latency::cpu.data      9816500                       # number of UpgradeReq MSHR miss cycles
system.l2.UpgradeReq_mshr_miss_latency::total      9816500                       # number of UpgradeReq MSHR miss cycles
system.l2.ReadExReq_mshr_miss_latency::cpu.data    328882500                       # number of ReadExReq MSHR miss cycles
system.l2.ReadExReq_mshr_miss_latency::total    328882500                       # number of ReadExReq MSHR miss cycles
system.l2.ReadCleanReq_mshr_miss_latency::cpu.inst     49036000                       # number of ReadCleanReq MSHR miss cycles
system.l2.ReadCleanReq_mshr_miss_latency::total     49036000                       # number of ReadCleanReq MSHR miss cycles
system.l2.ReadSharedReq_mshr_miss_latency::cpu.data    874948000                       # number of ReadSharedReq MSHR miss cycles
system.l2.ReadSharedReq_mshr_miss_latency::total    874948000                       # number of ReadSharedReq MSHR miss cycles
system.l2.demand_mshr_miss_latency::cpu.inst     49036000                       # number of demand (read+write) MSHR miss cycles
system.l2.demand_mshr_miss_latency::cpu.data   1203830500                       # number of demand (read+write) MSHR miss cycles
system.l2.demand_mshr_miss_latency::total   1252866500                       # number of demand (read+write) MSHR miss cycles
system.l2.overall_mshr_miss_latency::cpu.inst     49036000                       # number of overall MSHR miss cycles
system.l2.overall_mshr_miss_latency::cpu.data   1203830500                       # number of overall MSHR miss cycles
system.l2.overall_mshr_miss_latency::total   1252866500                       # number of overall MSHR miss cycles
system.l2.CleanEvict_mshr_miss_rate::writebacks          inf                       # mshr miss rate for CleanEvict accesses
system.l2.CleanEvict_mshr_miss_rate::total          inf                       # mshr miss rate for CleanEvict accesses
system.l2.UpgradeReq_mshr_miss_rate::cpu.data     0.026525                       # mshr miss rate for UpgradeReq accesses
system.l2.UpgradeReq_mshr_miss_rate::total     0.026525                       # mshr miss rate for UpgradeReq accesses
system.l2.ReadExReq_mshr_miss_rate::cpu.data     0.990035                       # mshr miss rate for ReadExReq accesses
system.l2.ReadExReq_mshr_miss_rate::total     0.990035                       # mshr miss rate for ReadExReq accesses
system.l2.ReadCleanReq_mshr_miss_rate::cpu.inst            1                       # mshr miss rate for ReadCleanReq accesses
system.l2.ReadCleanReq_mshr_miss_rate::total            1                       # mshr miss rate for ReadCleanReq accesses
system.l2.ReadSharedReq_mshr_miss_rate::cpu.data     0.931348                       # mshr miss rate for ReadSharedReq accesses
system.l2.ReadSharedReq_mshr_miss_rate::total     0.931348                       # mshr miss rate for ReadSharedReq accesses
system.l2.demand_mshr_miss_rate::cpu.inst            1                       # mshr miss rate for demand accesses
system.l2.demand_mshr_miss_rate::cpu.data     0.941766                       # mshr miss rate for demand accesses
system.l2.demand_mshr_miss_rate::total       0.942323                       # mshr miss rate for demand accesses
system.l2.overall_mshr_miss_rate::cpu.inst            1                       # mshr miss rate for overall accesses
system.l2.overall_mshr_miss_rate::cpu.data     0.941766                       # mshr miss rate for overall accesses
system.l2.overall_mshr_miss_rate::total      0.942323                       # mshr miss rate for overall accesses
system.l2.UpgradeReq_avg_mshr_miss_latency::cpu.data        14500                       # average UpgradeReq mshr miss latency
system.l2.UpgradeReq_avg_mshr_miss_latency::total        14500                       # average UpgradeReq mshr miss latency
system.l2.ReadExReq_avg_mshr_miss_latency::cpu.data 50926.370393                       # average ReadExReq mshr miss latency
system.l2.ReadExReq_avg_mshr_miss_latency::total 50926.370393                       # average ReadExReq mshr miss latency
system.l2.ReadCleanReq_avg_mshr_miss_latency::cpu.inst 138129.577465                       # average ReadCleanReq mshr miss latency
system.l2.ReadCleanReq_avg_mshr_miss_latency::total 138129.577465                       # average ReadCleanReq mshr miss latency
system.l2.ReadSharedReq_avg_mshr_miss_latency::cpu.data 31081.634103                       # average ReadSharedReq mshr miss latency
system.l2.ReadSharedReq_avg_mshr_miss_latency::total 31081.634103                       # average ReadSharedReq mshr miss latency
system.l2.demand_avg_mshr_miss_latency::cpu.inst 138129.577465                       # average overall mshr miss latency
system.l2.demand_avg_mshr_miss_latency::cpu.data 34784.746301                       # average overall mshr miss latency
system.l2.demand_avg_mshr_miss_latency::total 35834.067443                       # average overall mshr miss latency
system.l2.overall_avg_mshr_miss_latency::cpu.inst 138129.577465                       # average overall mshr miss latency
system.l2.overall_avg_mshr_miss_latency::cpu.data 34784.746301                       # average overall mshr miss latency
system.l2.overall_avg_mshr_miss_latency::total 35834.067443                       # average overall mshr miss latency
system.l2.replacements                          66805                       # number of replacements
system.l3.tags.pwrStateResidencyTicks::UNDEFINED  43885206500                       # Cumulative time (in ticks) in various power states
system.l3.tags.tagsinuse                  5907.372421                       # Cycle average of tags in use
system.l3.tags.total_refs                       68942                       # Total number of references to valid blocks.
system.l3.tags.sampled_refs                      6820                       # Sample count of references to valid blocks.
system.l3.tags.avg_refs                     10.108798                       # Average number of references to valid blocks.
system.l3.tags.warmup_cycle                    419000                       # Cycle when the warmup percentage was hit.
system.l3.tags.occ_blocks::cpu.inst        317.100748                       # Average occupied blocks per requestor
system.l3.tags.occ_blocks::cpu.data       5590.271673                       # Average occupied blocks per requestor
system.l3.tags.occ_percent::cpu.inst         0.038709                       # Average percentage of cache occupancy
system.l3.tags.occ_percent::cpu.data         0.682406                       # Average percentage of cache occupancy
system.l3.tags.occ_percent::total            0.721115                       # Average percentage of cache occupancy
system.l3.tags.occ_task_id_blocks::1024          6820                       # Occupied blocks per task id
system.l3.tags.age_task_id_blocks_1024::0           51                       # Occupied blocks per task id
system.l3.tags.age_task_id_blocks_1024::4         6769                       # Occupied blocks per task id
system.l3.tags.occ_task_id_percent::1024     0.832520                       # Percentage of cache occupancy per task id
system.l3.tags.tag_accesses                 564779684                       # Number of tag accesses
system.l3.tags.data_accesses                564779684                       # Number of data accesses
system.l3.pwrStateResidencyTicks::UNDEFINED  43885206500                       # Cumulative time (in ticks) in various power states
system.l3.WritebackDirty_hits::writebacks        33979                       # number of WritebackDirty hits
system.l3.WritebackDirty_hits::total            33979                       # number of WritebackDirty hits
system.l3.ReadExReq_hits::cpu.data                 91                       # number of ReadExReq hits
system.l3.ReadExReq_hits::total                    91                       # number of ReadExReq hits
system.l3.ReadSharedReq_hits::cpu.data          28052                       # number of ReadSharedReq hits
system.l3.ReadSharedReq_hits::total             28052                       # number of ReadSharedReq hits
system.l3.demand_hits::cpu.data                 28143                       # number of demand (read+write) hits
system.l3.demand_hits::total                    28143                       # number of demand (read+write) hits
system.l3.overall_hits::cpu.data                28143                       # number of overall hits
system.l3.overall_hits::total                   28143                       # number of overall hits
system.l3.ReadExReq_misses::cpu.data             6367                       # number of ReadExReq misses
system.l3.ReadExReq_misses::total                6367                       # number of ReadExReq misses
system.l3.ReadSharedReq_misses::cpu.inst          355                       # number of ReadSharedReq misses
system.l3.ReadSharedReq_misses::cpu.data           98                       # number of ReadSharedReq misses
system.l3.ReadSharedReq_misses::total             453                       # number of ReadSharedReq misses
system.l3.demand_misses::cpu.inst                 355                       # number of demand (read+write) misses
system.l3.demand_misses::cpu.data                6465                       # number of demand (read+write) misses
system.l3.demand_misses::total                   6820                       # number of demand (read+write) misses
system.l3.overall_misses::cpu.inst                355                       # number of overall misses
system.l3.overall_misses::cpu.data               6465                       # number of overall misses
system.l3.overall_misses::total                  6820                       # number of overall misses
system.l3.ReadExReq_miss_latency::cpu.data    252886500                       # number of ReadExReq miss cycles
system.l3.ReadExReq_miss_latency::total     252886500                       # number of ReadExReq miss cycles
system.l3.ReadSharedReq_miss_latency::cpu.inst     44953500                       # number of ReadSharedReq miss cycles
system.l3.ReadSharedReq_miss_latency::cpu.data     18235000                       # number of ReadSharedReq miss cycles
system.l3.ReadSharedReq_miss_latency::total     63188500                       # number of ReadSharedReq miss cycles
system.l3.demand_miss_latency::cpu.inst      44953500                       # number of demand (read+write) miss cycles
system.l3.demand_miss_latency::cpu.data     271121500                       # number of demand (read+write) miss cycles
system.l3.demand_miss_latency::total        316075000                       # number of demand (read+write) miss cycles
system.l3.overall_miss_latency::cpu.inst     44953500                       # number of overall miss cycles
system.l3.overall_miss_latency::cpu.data    271121500                       # number of overall miss cycles
system.l3.overall_miss_latency::total       316075000                       # number of overall miss cycles
system.l3.WritebackDirty_accesses::writebacks        33979                       # number of WritebackDirty accesses(hits+misses)
system.l3.WritebackDirty_accesses::total        33979                       # number of WritebackDirty accesses(hits+misses)
system.l3.ReadExReq_accesses::cpu.data           6458                       # number of ReadExReq accesses(hits+misses)
system.l3.ReadExReq_accesses::total              6458                       # number of ReadExReq accesses(hits+misses)
system.l3.ReadSharedReq_accesses::cpu.inst          355                       # number of ReadSharedReq accesses(hits+misses)
system.l3.ReadSharedReq_accesses::cpu.data        28150                       # number of ReadSharedReq accesses(hits+misses)
system.l3.ReadSharedReq_accesses::total         28505                       # number of ReadSharedReq accesses(hits+misses)
system.l3.demand_accesses::cpu.inst               355                       # number of demand (read+write) accesses
system.l3.demand_accesses::cpu.data             34608                       # number of demand (read+write) accesses
system.l3.demand_accesses::total                34963                       # number of demand (read+write) accesses
system.l3.overall_accesses::cpu.inst              355                       # number of overall (read+write) accesses
system.l3.overall_accesses::cpu.data            34608                       # number of overall (read+write) accesses
system.l3.overall_accesses::total               34963                       # number of overall (read+write) accesses
system.l3.ReadExReq_miss_rate::cpu.data      0.985909                       # miss rate for ReadExReq accesses
system.l3.ReadExReq_miss_rate::total         0.985909                       # miss rate for ReadExReq accesses
system.l3.ReadSharedReq_miss_rate::cpu.inst            1                       # miss rate for ReadSharedReq accesses
system.l3.ReadSharedReq_miss_rate::cpu.data     0.003481                       # miss rate for ReadSharedReq accesses
system.l3.ReadSharedReq_miss_rate::total     0.015892                       # miss rate for ReadSharedReq accesses
system.l3.demand_miss_rate::cpu.inst                1                       # miss rate for demand accesses
system.l3.demand_miss_rate::cpu.data         0.186807                       # miss rate for demand accesses
system.l3.demand_miss_rate::total            0.195063                       # miss rate for demand accesses
system.l3.overall_miss_rate::cpu.inst               1                       # miss rate for overall accesses
system.l3.overall_miss_rate::cpu.data        0.186807                       # miss rate for overall accesses
system.l3.overall_miss_rate::total           0.195063                       # miss rate for overall accesses
system.l3.ReadExReq_avg_miss_latency::cpu.data 39718.313177                       # average ReadExReq miss latency
system.l3.ReadExReq_avg_miss_latency::total 39718.313177                       # average ReadExReq miss latency
system.l3.ReadSharedReq_avg_miss_latency::cpu.inst 126629.577465                       # average ReadSharedReq miss latency
system.l3.ReadSharedReq_avg_miss_latency::cpu.data 186071.428571                       # average ReadSharedReq miss latency
system.l3.ReadSharedReq_avg_miss_latency::total 139488.962472                       # average ReadSharedReq miss latency
system.l3.demand_avg_miss_latency::cpu.inst 126629.577465                       # average overall miss latency
system.l3.demand_avg_miss_latency::cpu.data 41936.813612                       # average overall miss latency
system.l3.demand_avg_miss_latency::total 46345.307918                       # average overall miss latency
system.l3.overall_avg_miss_latency::cpu.inst 126629.577465                       # average overall miss latency
system.l3.overall_avg_miss_latency::cpu.data 41936.813612                       # average overall miss latency
system.l3.overall_avg_miss_latency::total 46345.307918                       # average overall miss latency
system.l3.blocked_cycles::no_mshrs                  0                       # number of cycles access was blocked
system.l3.blocked_cycles::no_targets                0                       # number of cycles access was blocked
system.l3.blocked::no_mshrs                         0                       # number of cycles access was blocked
system.l3.blocked::no_targets                       0                       # number of cycles access was blocked
system.l3.avg_blocked_cycles::no_mshrs            nan                       # average number of cycles each access was blocked
system.l3.avg_blocked_cycles::no_targets          nan                       # average number of cycles each access was blocked
system.l3.ReadExReq_mshr_misses::cpu.data         6367                       # number of ReadExReq MSHR misses
system.l3.ReadExReq_mshr_misses::total           6367                       # number of ReadExReq MSHR misses
system.l3.ReadSharedReq_mshr_misses::cpu.inst          355                       # number of ReadSharedReq MSHR misses
system.l3.ReadSharedReq_mshr_misses::cpu.data           98                       # number of ReadSharedReq MSHR misses
system.l3.ReadSharedReq_mshr_misses::total          453                       # number of ReadSharedReq MSHR misses
system.l3.demand_mshr_misses::cpu.inst            355                       # number of demand (read+write) MSHR misses
system.l3.demand_mshr_misses::cpu.data           6465                       # number of demand (read+write) MSHR misses
system.l3.demand_mshr_misses::total              6820                       # number of demand (read+write) MSHR misses
system.l3.overall_mshr_misses::cpu.inst           355                       # number of overall MSHR misses
system.l3.overall_mshr_misses::cpu.data          6465                       # number of overall MSHR misses
system.l3.overall_mshr_misses::total             6820                       # number of overall MSHR misses
system.l3.ReadExReq_mshr_miss_latency::cpu.data    157381500                       # number of ReadExReq MSHR miss cycles
system.l3.ReadExReq_mshr_miss_latency::total    157381500                       # number of ReadExReq MSHR miss cycles
system.l3.ReadSharedReq_mshr_miss_latency::cpu.inst     39628500                       # number of ReadSharedReq MSHR miss cycles
system.l3.ReadSharedReq_mshr_miss_latency::cpu.data     16765000                       # number of ReadSharedReq MSHR miss cycles
system.l3.ReadSharedReq_mshr_miss_latency::total     56393500                       # number of ReadSharedReq MSHR miss cycles
system.l3.demand_mshr_miss_latency::cpu.inst     39628500                       # number of demand (read+write) MSHR miss cycles
system.l3.demand_mshr_miss_latency::cpu.data    174146500                       # number of demand (read+write) MSHR miss cycles
system.l3.demand_mshr_miss_latency::total    213775000                       # number of demand (read+write) MSHR miss cycles
system.l3.overall_mshr_miss_latency::cpu.inst     39628500                       # number of overall MSHR miss cycles
system.l3.overall_mshr_miss_latency::cpu.data    174146500                       # number of overall MSHR miss cycles
system.l3.overall_mshr_miss_latency::total    213775000                       # number of overall MSHR miss cycles
system.l3.ReadExReq_mshr_miss_rate::cpu.data     0.985909                       # mshr miss rate for ReadExReq accesses
system.l3.ReadExReq_mshr_miss_rate::total     0.985909                       # mshr miss rate for ReadExReq accesses
system.l3.ReadSharedReq_mshr_miss_rate::cpu.inst            1                       # mshr miss rate for ReadSharedReq accesses
system.l3.ReadSharedReq_mshr_miss_rate::cpu.data     0.003481                       # mshr miss rate for ReadSharedReq accesses
system.l3.ReadSharedReq_mshr_miss_rate::total     0.015892                       # mshr miss rate for ReadSharedReq accesses
system.l3.demand_mshr_miss_rate::cpu.inst            1                       # mshr miss rate for demand accesses
system.l3.demand_mshr_miss_rate::cpu.data     0.186807                       # mshr miss rate for demand accesses
system.l3.demand_mshr_miss_rate::total       0.195063                       # mshr miss rate for demand accesses
system.l3.overall_mshr_miss_rate::cpu.inst            1                       # mshr miss rate for overall accesses
system.l3.overall_mshr_miss_rate::cpu.data     0.186807                       # mshr miss rate for overall accesses
system.l3.overall_mshr_miss_rate::total      0.195063                       # mshr miss rate for overall accesses
system.l3.ReadExReq_avg_mshr_miss_latency::cpu.data 24718.313177                       # average ReadExReq mshr miss latency
system.l3.ReadExReq_avg_mshr_miss_latency::total 24718.313177                       # average ReadExReq mshr miss latency
system.l3.ReadSharedReq_avg_mshr_miss_latency::cpu.inst 111629.577465                       # average ReadSharedReq mshr miss latency
system.l3.ReadSharedReq_avg_mshr_miss_latency::cpu.data 171071.428571                       # average ReadSharedReq mshr miss latency
system.l3.ReadSharedReq_avg_mshr_miss_latency::total 124488.962472                       # average ReadSharedReq mshr miss latency
system.l3.demand_avg_mshr_miss_latency::cpu.inst 111629.577465                       # average overall mshr miss latency
system.l3.demand_avg_mshr_miss_latency::cpu.data 26936.813612                       # average overall mshr miss latency
system.l3.demand_avg_mshr_miss_latency::total 31345.307918                       # average overall mshr miss latency
system.l3.overall_avg_mshr_miss_latency::cpu.inst 111629.577465                       # average overall mshr miss latency
system.l3.overall_avg_mshr_miss_latency::cpu.data 26936.813612                       # average overall mshr miss latency
system.l3.overall_avg_mshr_miss_latency::total 31345.307918                       # average overall mshr miss latency
system.l3.replacements                              0                       # number of replacements
system.membus.snoop_filter.tot_requests          6820                       # Total number of requests made to the snoop filter.
system.membus.snoop_filter.hit_single_requests            0                       # Number of requests hitting in the snoop filter with a single holder of the requested data.
system.membus.snoop_filter.hit_multi_requests            0                       # Number of requests hitting in the snoop filter with multiple (>1) holders of the requested data.
system.membus.snoop_filter.tot_snoops               0                       # Total number of snoops made to the snoop filter.
system.membus.snoop_filter.hit_single_snoops            0                       # Number of snoops hitting in the snoop filter with a single holder of the requested data.
system.membus.snoop_filter.hit_multi_snoops            0                       # Number of snoops hitting in the snoop filter with multiple (>1) holders of the requested data.
system.membus.pwrStateResidencyTicks::UNDEFINED  43885206500                       # Cumulative time (in ticks) in various power states
system.membus.trans_dist::ReadResp                453                       # Transaction distribution
system.membus.trans_dist::ReadExReq              6367                       # Transaction distribution
system.membus.trans_dist::ReadExResp             6367                       # Transaction distribution
system.membus.trans_dist::ReadSharedReq           453                       # Transaction distribution
system.membus.pkt_count_system.l3.mem_side::system.mem_ctrls.port        13640                       # Packet count per connected master and slave (bytes)
system.membus.pkt_count_system.l3.mem_side::total        13640                       # Packet count per connected master and slave (bytes)
system.membus.pkt_count::total                  13640                       # Packet count per connected master and slave (bytes)
system.membus.pkt_size_system.l3.mem_side::system.mem_ctrls.port       436480                       # Cumulative packet size per connected master and slave (bytes)
system.membus.pkt_size_system.l3.mem_side::total       436480                       # Cumulative packet size per connected master and slave (bytes)
system.membus.pkt_size::total                  436480                       # Cumulative packet size per connected master and slave (bytes)
system.membus.snoops                                0                       # Total snoops (count)
system.membus.snoopTraffic                          0                       # Total snoop traffic (bytes)
system.membus.snoop_fanout::samples              6820                       # Request fanout histogram
system.membus.snoop_fanout::mean                    0                       # Request fanout histogram
system.membus.snoop_fanout::stdev                   0                       # Request fanout histogram
system.membus.snoop_fanout::underflows              0      0.00%      0.00% # Request fanout histogram
system.membus.snoop_fanout::0                    6820    100.00%    100.00% # Request fanout histogram
system.membus.snoop_fanout::1                       0      0.00%    100.00% # Request fanout histogram
system.membus.snoop_fanout::overflows               0      0.00%    100.00% # Request fanout histogram
system.membus.snoop_fanout::min_value               0                       # Request fanout histogram
system.membus.snoop_fanout::max_value               0                       # Request fanout histogram
system.membus.snoop_fanout::total                6820                       # Request fanout histogram
system.membus.reqLayer2.occupancy             6826000                       # Layer occupancy (ticks)
system.membus.reqLayer2.utilization               0.0                       # Layer utilization (%)
system.membus.respLayer1.occupancy           34106000                       # Layer occupancy (ticks)
system.membus.respLayer1.utilization              0.1                       # Layer utilization (%)
system.tol2bus.snoop_filter.tot_requests        98395                       # Total number of requests made to the snoop filter.
system.tol2bus.snoop_filter.hit_single_requests        61292                       # Number of requests hitting in the snoop filter with a single holder of the requested data.
system.tol2bus.snoop_filter.hit_multi_requests            0                       # Number of requests hitting in the snoop filter with multiple (>1) holders of the requested data.
system.tol2bus.snoop_filter.tot_snoops          35985                       # Total number of snoops made to the snoop filter.
system.tol2bus.snoop_filter.hit_single_snoops        35985                       # Number of snoops hitting in the snoop filter with a single holder of the requested data.
system.tol2bus.snoop_filter.hit_multi_snoops            0                       # Number of snoops hitting in the snoop filter with multiple (>1) holders of the requested data.
system.tol2bus.pwrStateResidencyTicks::UNDEFINED  43885206500                       # Cumulative time (in ticks) in various power states
system.tol2bus.trans_dist::ReadResp             30580                       # Transaction distribution
system.tol2bus.trans_dist::WritebackDirty        67119                       # Transaction distribution
system.tol2bus.trans_dist::WritebackClean           45                       # Transaction distribution
system.tol2bus.trans_dist::CleanEvict           35410                       # Transaction distribution
system.tol2bus.trans_dist::UpgradeReq           25523                       # Transaction distribution
system.tol2bus.trans_dist::UpgradeResp          25523                       # Transaction distribution
system.tol2bus.trans_dist::ReadExReq             6523                       # Transaction distribution
system.tol2bus.trans_dist::ReadExResp            6523                       # Transaction distribution
system.tol2bus.trans_dist::ReadCleanReq           355                       # Transaction distribution
system.tol2bus.trans_dist::ReadSharedReq        30225                       # Transaction distribution
system.tol2bus.pkt_count_system.cpu.icache.mem_side::system.l2.cpu_side          755                       # Packet count per connected master and slave (bytes)
system.tol2bus.pkt_count_system.cpu.dcache.mem_side::system.l2.cpu_side       160266                       # Packet count per connected master and slave (bytes)
system.tol2bus.pkt_count::total                161021                       # Packet count per connected master and slave (bytes)
system.tol2bus.pkt_size_system.cpu.icache.mem_side::system.l2.cpu_side        25600                       # Cumulative packet size per connected master and slave (bytes)
system.tol2bus.pkt_size_system.cpu.dcache.mem_side::system.l2.cpu_side      4472832                       # Cumulative packet size per connected master and slave (bytes)
system.tol2bus.pkt_size::total                4498432                       # Cumulative packet size per connected master and slave (bytes)
system.tol2bus.snoops                           66805                       # Total snoops (count)
system.tol2bus.snoopTraffic                   2174656                       # Total snoop traffic (bytes)
system.tol2bus.snoop_fanout::samples           129431                       # Request fanout histogram
system.tol2bus.snoop_fanout::mean            0.278025                       # Request fanout histogram
system.tol2bus.snoop_fanout::stdev           0.448027                       # Request fanout histogram
system.tol2bus.snoop_fanout::underflows             0      0.00%      0.00% # Request fanout histogram
system.tol2bus.snoop_fanout::0                  93446     72.20%     72.20% # Request fanout histogram
system.tol2bus.snoop_fanout::1                  35985     27.80%    100.00% # Request fanout histogram
system.tol2bus.snoop_fanout::2                      0      0.00%    100.00% # Request fanout histogram
system.tol2bus.snoop_fanout::3                      0      0.00%    100.00% # Request fanout histogram
system.tol2bus.snoop_fanout::4                      0      0.00%    100.00% # Request fanout histogram
system.tol2bus.snoop_fanout::overflows              0      0.00%    100.00% # Request fanout histogram
system.tol2bus.snoop_fanout::min_value              0                       # Request fanout histogram
system.tol2bus.snoop_fanout::max_value              1                       # Request fanout histogram
system.tol2bus.snoop_fanout::total             129431                       # Request fanout histogram
system.tol2bus.reqLayer0.occupancy           82382500                       # Layer occupancy (ticks)
system.tol2bus.reqLayer0.utilization              0.2                       # Layer utilization (%)
system.tol2bus.respLayer0.occupancy            532500                       # Layer occupancy (ticks)
system.tol2bus.respLayer0.utilization             0.0                       # Layer utilization (%)
system.tol2bus.respLayer1.occupancy          67883500                       # Layer occupancy (ticks)
system.tol2bus.respLayer1.utilization             0.2                       # Layer utilization (%)
system.tol3bus.snoop_filter.tot_requests        72235                       # Total number of requests made to the snoop filter.
system.tol3bus.snoop_filter.hit_single_requests        37272                       # Number of requests hitting in the snoop filter with a single holder of the requested data.
system.tol3bus.snoop_filter.hit_multi_requests            0                       # Number of requests hitting in the snoop filter with multiple (>1) holders of the requested data.
system.tol3bus.snoop_filter.tot_snoops              0                       # Total number of snoops made to the snoop filter.
system.tol3bus.snoop_filter.hit_single_snoops            0                       # Number of snoops hitting in the snoop filter with a single holder of the requested data.
system.tol3bus.snoop_filter.hit_multi_snoops            0                       # Number of snoops hitting in the snoop filter with multiple (>1) holders of the requested data.
system.tol3bus.pwrStateResidencyTicks::UNDEFINED  43885206500                       # Cumulative time (in ticks) in various power states
system.tol3bus.trans_dist::ReadResp             28505                       # Transaction distribution
system.tol3bus.trans_dist::WritebackDirty        33979                       # Transaction distribution
system.tol3bus.trans_dist::CleanEvict            2616                       # Transaction distribution
system.tol3bus.trans_dist::UpgradeReq             677                       # Transaction distribution
system.tol3bus.trans_dist::ReadExReq             6458                       # Transaction distribution
system.tol3bus.trans_dist::ReadExResp            6458                       # Transaction distribution
system.tol3bus.trans_dist::ReadSharedReq        28505                       # Transaction distribution
system.tol3bus.pkt_count_system.l2.mem_side::system.l3.cpu_side       107198                       # Packet count per connected master and slave (bytes)
system.tol3bus.pkt_size_system.l2.mem_side::system.l3.cpu_side      4412288                       # Cumulative packet size per connected master and slave (bytes)
system.tol3bus.snoops                               0                       # Total snoops (count)
system.tol3bus.snoopTraffic                         0                       # Total snoop traffic (bytes)
system.tol3bus.snoop_fanout::samples            35640                       # Request fanout histogram
system.tol3bus.snoop_fanout::mean                   0                       # Request fanout histogram
system.tol3bus.snoop_fanout::stdev                  0                       # Request fanout histogram
system.tol3bus.snoop_fanout::underflows             0      0.00%      0.00% # Request fanout histogram
system.tol3bus.snoop_fanout::0                  35640    100.00%    100.00% # Request fanout histogram
system.tol3bus.snoop_fanout::1                      0      0.00%    100.00% # Request fanout histogram
system.tol3bus.snoop_fanout::overflows              0      0.00%    100.00% # Request fanout histogram
system.tol3bus.snoop_fanout::min_value              0                       # Request fanout histogram
system.tol3bus.snoop_fanout::max_value              0                       # Request fanout histogram
system.tol3bus.snoop_fanout::total              35640                       # Request fanout histogram
system.tol3bus.reqLayer0.occupancy          104075500                       # Layer occupancy (ticks)
system.tol3bus.reqLayer0.utilization              0.2                       # Layer utilization (%)
system.tol3bus.respLayer0.occupancy          87407500                       # Layer occupancy (ticks)
system.tol3bus.respLayer0.utilization             0.2                       # Layer utilization (%)

---------- End Simulation Statistics   ----------
